March/linesunder.dss
New Line.8684943 bus1=103484.1.2.3 bus2=101399.1.2.3 length=51.604272 units=m phases=3 phases=3 LineCode=UA750Z_UG_PRIMARY_3_2Cond NormAmps=485
New Line.27398360 bus1=101399.1.2.3 bus2=104117.1.2.3 length=15.141831 units=m phases=3 phases=3 LineCode=UA750Z_UG_PRIMARY_3_2Cond NormAmps=485
New Line.8684944 bus1=104117.1.2.3 bus2=104533.1.2.3 length=124.25319 units=m phases=3 phases=3 LineCode=UA750Z_UG_PRIMARY_3_2Cond NormAmps=485
New Line.8684845 bus1=104533.1.2.3 bus2=10967.1.2.3 length=171.257956 units=m phases=3 phases=3 LineCode=UA750Z_UG_PRIMARY_3_2Cond NormAmps=485
New Line.8684846 bus1=10967.1.2.3 bus2=10134.1.2.3 length=487.629854 units=m phases=3 phases=3 LineCode=UA750Z_UG_PRIMARY_3_2Cond NormAmps=485
New Line.8684847 bus1=10134.1.2.3 bus2=101784.1.2.3 length=459.285745 units=m phases=3 phases=3 LineCode=UA750Z_UG_PRIMARY_3_2Cond NormAmps=485
New Line.8684848 bus1=101784.1.2.3 bus2=10520.1.2.3 length=347.268391 units=m phases=3 phases=3 LineCode=UA750Z_UG_PRIMARY_3_2Cond NormAmps=485
New Line.8684849 bus1=10520.1.2.3 bus2=104638.1.2.3 length=169.929654 units=m phases=3 phases=3 LineCode=UA750Z_UG_PRIMARY_3_2Cond NormAmps=485
New Line.8683790 bus1=104638.1.2.3 bus2=102660.1.2.3 length=292.690918 units=m phases=3 phases=3 LineCode=UA750Z_UG_PRIMARY_3_2Cond NormAmps=485
New Line.8683831 bus1=102660.1.2.3 bus2=101155.1.2.3 length=288.606053 units=m phases=3 phases=3 LineCode=UA750Z_UG_PRIMARY_3_2Cond NormAmps=485
New Line.8683858 bus1=101155.1.2.3 bus2=107303.1.2.3 length=69.477637 units=m phases=3 phases=3 LineCode=UA750T_UG_PRIMARY_3_2Cond NormAmps=485
Edit Line.8683837 bus1=107303.3.0 bus2=102088.3.0 length=0.543725 units=m phases=1 phases=1 LineCode=UA750T_UG_PRIMARY_1_1Cond NormAmps=485
New Line.5406008 bus1=102088.3.0 bus2=105065.3.0 length=0.304897 units=m phases=1 phases=1 LineCode=BUSWORK_1_1Cond NormAmps=640
New Line.5406002 bus1=105065.3.0 bus2=107159.3.0 length=0.305087 units=m phases=1 phases=1 LineCode=BUSWORK_1_1Cond NormAmps=640
Edit Line.5406009 bus1=107159.3.0 bus2=101786.3.0 length=0.609347 units=m phases=1 phases=1 LineCode=BUSWORK_1_1Cond NormAmps=640
New Line.19688735 bus1=101786.3.0 bus2=107375.3.0 length=0.231528 units=m phases=1 phases=1 LineCode=UA750Z_UG_PRIMARY_1_1Cond NormAmps=485
New Line.8683835 bus1=107375.3.0 bus2=102386.3.0 length=0.306506 units=m phases=1 phases=1 LineCode=UA750Z_UG_PRIMARY_1_1Cond NormAmps=485
Edit Line.5406010 bus1=107159.3.0 bus2=106272.3.0 length=0.304769 units=m phases=1 phases=1 LineCode=BUSWORK_1_1Cond NormAmps=640
New Line.19688742 bus1=106272.3.0 bus2=105816.3.0 length=0.267704 units=m phases=1 phases=1 LineCode=UA750Z_UG_PRIMARY_1_1Cond NormAmps=485
New Line.8683836 bus1=105816.3.0 bus2=10258.3.0 length=0.291993 units=m phases=1 phases=1 LineCode=UA750Z_UG_PRIMARY_1_1Cond NormAmps=485
Edit Line.5406007 bus1=105065.3.0 bus2=102099.3.0 length=0.609538 units=m phases=1 phases=1 LineCode=BUSWORK_1_1Cond NormAmps=640
New Line.8683843 bus1=102099.3.0 bus2=103452.3.0 length=0.54156 units=m phases=1 phases=1 LineCode=UA1/0T_UG_PRIMARY_1_1Cond NormAmps=150
Edit Line.8683839 bus1=107303.1.0 bus2=102627.1.0 length=0.543715 units=m phases=1 phases=1 LineCode=UA750T_UG_PRIMARY_1_1Cond NormAmps=485
New Line.5406004 bus1=102627.1.0 bus2=10244.1.0 length=0.609538 units=m phases=1 phases=1 LineCode=BUSWORK_1_1Cond NormAmps=640
New Line.5406000 bus1=10244.1.0 bus2=106606.1.0 length=1.524099 units=m phases=1 phases=1 LineCode=BUSWORK_1_1Cond NormAmps=640
Edit Line.5406013 bus1=106606.1.0 bus2=103626.1.0 length=0.304579 units=m phases=1 phases=1 LineCode=BUSWORK_1_1Cond NormAmps=640
New Line.19688740 bus1=103626.1.0 bus2=101023.1.0 length=0.232278 units=m phases=1 phases=1 LineCode=UA750Z_UG_PRIMARY_1_1Cond NormAmps=485
New Line.8683840 bus1=101023.1.0 bus2=102386.1.0 length=0.305744 units=m phases=1 phases=1 LineCode=UA750Z_UG_PRIMARY_1_1Cond NormAmps=485
Edit Line.5406014 bus1=106606.1.0 bus2=10155.1.0 length=0.609855 units=m phases=1 phases=1 LineCode=BUSWORK_1_1Cond NormAmps=640
New Line.8683838 bus1=10155.1.0 bus2=103591.1.0 length=0.278051 units=m phases=1 phases=1 LineCode=UA750Z_UG_PRIMARY_1_1Cond NormAmps=485
New Line.19686358 bus1=103591.1.0 bus2=10258.1.0 length=0.271261 units=m phases=1 phases=1 LineCode=UA750Z_UG_PRIMARY_1_1Cond NormAmps=485
Edit Line.5406003 bus1=10244.1.0 bus2=102353.1.0 length=0.304579 units=m phases=1 phases=1 LineCode=BUSWORK_1_1Cond NormAmps=640
New Line.8683842 bus1=102353.1.0 bus2=103452.1.0 length=0.541938 units=m phases=1 phases=1 LineCode=UA1/0T_UG_PRIMARY_1_1Cond NormAmps=150
Edit Line.8683833 bus1=107303.2.0 bus2=105551.2.0 length=0.450263 units=m phases=1 phases=1 LineCode=UA750T_UG_PRIMARY_1_1Cond NormAmps=485
New Line.5406006 bus1=105551.2.0 bus2=105332.2.0 length=0.45674 units=m phases=1 phases=1 LineCode=BUSWORK_1_1Cond NormAmps=640
New Line.5406001 bus1=105332.2.0 bus2=105835.2.0 length=0.913926 units=m phases=1 phases=1 LineCode=BUSWORK_1_1Cond NormAmps=640
Edit Line.5406011 bus1=105835.2.0 bus2=105773.2.0 length=0.457376 units=m phases=1 phases=1 LineCode=BUSWORK_1_1Cond NormAmps=640
New Line.19687841 bus1=105773.2.0 bus2=106085.2.0 length=0.186011 units=m phases=1 phases=1 LineCode=UA750Z_UG_PRIMARY_1_1Cond NormAmps=485
New Line.8683834 bus1=106085.2.0 bus2=102386.2.0 length=0.257266 units=m phases=1 phases=1 LineCode=UA750Z_UG_PRIMARY_1_1Cond NormAmps=485
Edit Line.5406012 bus1=105835.2.0 bus2=10704.2.0 length=0.457058 units=m phases=1 phases=1 LineCode=BUSWORK_1_1Cond NormAmps=640
New Line.19688748 bus1=10704.2.0 bus2=103558.2.0 length=0.23133 units=m phases=1 phases=1 LineCode=UA750Z_UG_PRIMARY_1_1Cond NormAmps=485
New Line.8683832 bus1=103558.2.0 bus2=10258.2.0 length=0.231743 units=m phases=1 phases=1 LineCode=UA750Z_UG_PRIMARY_1_1Cond NormAmps=485
Edit Line.5406005 bus1=105332.2.0 bus2=106330.2.0 length=0.457504 units=m phases=1 phases=1 LineCode=BUSWORK_1_1Cond NormAmps=640
New Line.8683841 bus1=106330.2.0 bus2=103452.2.0 length=0.447786 units=m phases=1 phases=1 LineCode=UA1/0T_UG_PRIMARY_1_1Cond NormAmps=150
Edit Line.8683860 bus1=103452.1.2.3 bus2=104424.1.2.3 length=7.72517 units=m phases=3 phases=3 LineCode=UA1/0T_UG_PRIMARY_3_1Cond NormAmps=150
New Line.27810645 bus1=104424.1.2.3 bus2=102190.1.2.3 length=1.523971 units=m phases=3 phases=3 LineCode=UA1/0T_UG_PRIMARY_3_1Cond NormAmps=150
New Line.8683861 bus1=102386.1.2.3 bus2=103084.1.2.3 length=16.581354 units=m phases=3 phases=3 LineCode=UA750Z_UG_PRIMARY_3_1Cond NormAmps=485
Edit Line.8683844 bus1=103084.2.0 bus2=107064.2.0 length=0.44696 units=m phases=1 phases=1 LineCode=UA750Z_UG_PRIMARY_1_1Cond NormAmps=485
New Line.5406027 bus1=107064.2.0 bus2=104944.2.0 length=0.457376 units=m phases=1 phases=1 LineCode=BUSWORK_1_1Cond NormAmps=640
New Line.5406016 bus1=104944.2.0 bus2=102306.2.0 length=0.913862 units=m phases=1 phases=1 LineCode=BUSWORK_1_1Cond NormAmps=640
Edit Line.5406021 bus1=102306.2.0 bus2=102575.2.0 length=0.456931 units=m phases=1 phases=1 LineCode=BUSWORK_1_1Cond NormAmps=640
New Line.19688745 bus1=102575.2.0 bus2=101181.2.0 length=0.203761 units=m phases=1 phases=1 LineCode=UA750Z_UG_PRIMARY_1_1Cond NormAmps=485
New Line.8683845 bus1=101181.2.0 bus2=103362.2.0 length=0.243707 units=m phases=1 phases=1 LineCode=UA750Z_UG_PRIMARY_1_1Cond NormAmps=485
New Line.5406020 bus1=102306.2.0 bus2=107050.2.0 length=0.457058 units=m phases=1 phases=1 LineCode=BUSWORK_1_1Cond NormAmps=640
New Line.5406026 bus1=104944.2.0 bus2=10988.2.0 length=0.456613 units=m phases=1 phases=1 LineCode=BUSWORK_1_1Cond NormAmps=640
Edit Line.8683846 bus1=103084.1.0 bus2=105774.1.0 length=0.541317 units=m phases=1 phases=1 LineCode=UA750Z_UG_PRIMARY_1_1Cond NormAmps=485
New Line.5406029 bus1=105774.1.0 bus2=105513.1.0 length=0.609538 units=m phases=1 phases=1 LineCode=BUSWORK_1_1Cond NormAmps=640
New Line.5406015 bus1=105513.1.0 bus2=102843.1.0 length=1.52378 units=m phases=1 phases=1 LineCode=BUSWORK_1_1Cond NormAmps=640
Edit Line.5406019 bus1=102843.1.0 bus2=105518.1.0 length=0.609284 units=m phases=1 phases=1 LineCode=BUSWORK_1_1Cond NormAmps=640
New Line.19686361 bus1=105518.1.0 bus2=105985.1.0 length=0.251851 units=m phases=1 phases=1 LineCode=UA750Z_UG_PRIMARY_1_1Cond NormAmps=485
New Line.8683847 bus1=105985.1.0 bus2=103362.1.0 length=0.289688 units=m phases=1 phases=1 LineCode=UA750Z_UG_PRIMARY_1_1Cond NormAmps=485
New Line.5406018 bus1=102843.1.0 bus2=106796.1.0 length=0.303943 units=m phases=1 phases=1 LineCode=BUSWORK_1_1Cond NormAmps=640
New Line.5406028 bus1=105513.1.0 bus2=102049.1.0 length=0.304642 units=m phases=1 phases=1 LineCode=BUSWORK_1_1Cond NormAmps=640
Edit Line.8683849 bus1=103084.3.0 bus2=106540.3.0 length=0.541191 units=m phases=1 phases=1 LineCode=UA750Z_UG_PRIMARY_1_1Cond NormAmps=485
New Line.5406025 bus1=106540.3.0 bus2=104429.3.0 length=0.304769 units=m phases=1 phases=1 LineCode=BUSWORK_1_1Cond NormAmps=640
New Line.5406017 bus1=104429.3.0 bus2=106280.3.0 length=0.304642 units=m phases=1 phases=1 LineCode=BUSWORK_1_1Cond NormAmps=640
Edit Line.5406023 bus1=106280.3.0 bus2=104166.3.0 length=0.304959 units=m phases=1 phases=1 LineCode=BUSWORK_1_1Cond NormAmps=640
New Line.19686521 bus1=104166.3.0 bus2=102147.3.0 length=0.247744 units=m phases=1 phases=1 LineCode=UA750Z_UG_PRIMARY_1_1Cond NormAmps=485
New Line.8683848 bus1=102147.3.0 bus2=103362.3.0 length=0.293392 units=m phases=1 phases=1 LineCode=UA750Z_UG_PRIMARY_1_1Cond NormAmps=485
New Line.5406022 bus1=106280.3.0 bus2=103885.3.0 length=0.609093 units=m phases=1 phases=1 LineCode=BUSWORK_1_1Cond NormAmps=640
New Line.5406024 bus1=104429.3.0 bus2=101500.3.0 length=0.609411 units=m phases=1 phases=1 LineCode=BUSWORK_1_1Cond NormAmps=640
New Line.8683856 bus1=103362.1.2.3 bus2=106059.1.2.3 length=11.911824 units=m phases=3 phases=3 LineCode=UA750Z_UG_PRIMARY_3_1Cond NormAmps=485
Edit Line.8683851 bus1=106059.2.0 bus2=101536.2.0 length=0.455993 units=m phases=1 phases=1 LineCode=UA750Z_UG_PRIMARY_1_1Cond NormAmps=485
New Line.5406036 bus1=101536.2.0 bus2=101539.2.0 length=0.456819 units=m phases=1 phases=1 LineCode=BUSWORK_1_1Cond NormAmps=640
New Line.5406031 bus1=101539.2.0 bus2=104153.2.0 length=0.914652 units=m phases=1 phases=1 LineCode=BUSWORK_1_1Cond NormAmps=640
Edit Line.5406042 bus1=104153.2.0 bus2=106553.2.0 length=0.457007 units=m phases=1 phases=1 LineCode=BUSWORK_1_1Cond NormAmps=640
New Line.8683850 bus1=106553.2.0 bus2=106588.2.0 length=0.231503 units=m phases=1 phases=1 LineCode=UA750Z_UG_PRIMARY_1_1Cond NormAmps=485
New Line.19687843 bus1=106588.2.0 bus2=102313.2.0 length=0.218389 units=m phases=1 phases=1 LineCode=UA750Z_UG_PRIMARY_1_1Cond NormAmps=485
Edit Line.5406041 bus1=104153.2.0 bus2=102260.2.0 length=0.456951 units=m phases=1 phases=1 LineCode=BUSWORK_1_1Cond NormAmps=640
New Line.8687270 bus1=102260.2.0 bus2=105766.2.0 length=0.44798 units=m phases=1 phases=1 LineCode=UA1/0T_UG_PRIMARY_1_1Cond NormAmps=150
New Line.5406035 bus1=101539.2.0 bus2=102059.2.0 length=0.457138 units=m phases=1 phases=1 LineCode=BUSWORK_1_1Cond NormAmps=640
Edit Line.8683853 bus1=106059.1.0 bus2=102590.1.0 length=0.548584 units=m phases=1 phases=1 LineCode=UA750Z_UG_PRIMARY_1_1Cond NormAmps=485
New Line.5406034 bus1=102590.1.0 bus2=103400.1.0 length=0.609368 units=m phases=1 phases=1 LineCode=BUSWORK_1_1Cond NormAmps=640
New Line.5406030 bus1=103400.1.0 bus2=101778.1.0 length=1.524339 units=m phases=1 phases=1 LineCode=BUSWORK_1_1Cond NormAmps=640
Edit Line.5406044 bus1=101778.1.0 bus2=106038.1.0 length=0.609368 units=m phases=1 phases=1 LineCode=BUSWORK_1_1Cond NormAmps=640
New Line.8683852 bus1=106038.1.0 bus2=104097.1.0 length=0.283456 units=m phases=1 phases=1 LineCode=UA750Z_UG_PRIMARY_1_1Cond NormAmps=485
New Line.19688750 bus1=104097.1.0 bus2=102313.1.0 length=0.260681 units=m phases=1 phases=1 LineCode=UA750Z_UG_PRIMARY_1_1Cond NormAmps=485
Edit Line.5406043 bus1=101778.1.0 bus2=102801.1.0 length=0.304459 units=m phases=1 phases=1 LineCode=BUSWORK_1_1Cond NormAmps=640
New Line.8687490 bus1=102801.1.0 bus2=105766.1.0 length=0.541001 units=m phases=1 phases=1 LineCode=UA1/0T_UG_PRIMARY_1_1Cond NormAmps=150
New Line.5406033 bus1=103400.1.0 bus2=104983.1.0 length=0.304778 units=m phases=1 phases=1 LineCode=BUSWORK_1_1Cond NormAmps=640
Edit Line.8683855 bus1=106059.3.0 bus2=102054.3.0 length=0.548377 units=m phases=1 phases=1 LineCode=UA750Z_UG_PRIMARY_1_1Cond NormAmps=485
New Line.5406038 bus1=102054.3.0 bus2=105523.3.0 length=0.304909 units=m phases=1 phases=1 LineCode=BUSWORK_1_1Cond NormAmps=640
New Line.5406032 bus1=105523.3.0 bus2=105253.3.0 length=0.305097 units=m phases=1 phases=1 LineCode=BUSWORK_1_1Cond NormAmps=640
Edit Line.5406040 bus1=105253.3.0 bus2=104980.3.0 length=0.304966 units=m phases=1 phases=1 LineCode=BUSWORK_1_1Cond NormAmps=640
New Line.8683854 bus1=104980.3.0 bus2=102285.3.0 length=0.279388 units=m phases=1 phases=1 LineCode=UA750Z_UG_PRIMARY_1_1Cond NormAmps=485
New Line.19684571 bus1=102285.3.0 bus2=102313.3.0 length=0.264177 units=m phases=1 phases=1 LineCode=UA750Z_UG_PRIMARY_1_1Cond NormAmps=485
Edit Line.5406039 bus1=105253.3.0 bus2=105734.3.0 length=0.609049 units=m phases=1 phases=1 LineCode=BUSWORK_1_1Cond NormAmps=640
New Line.8687491 bus1=105734.3.0 bus2=105766.3.0 length=0.542362 units=m phases=1 phases=1 LineCode=UA1/0T_UG_PRIMARY_1_1Cond NormAmps=150
New Line.5406037 bus1=105523.3.0 bus2=101253.3.0 length=0.609049 units=m phases=1 phases=1 LineCode=BUSWORK_1_1Cond NormAmps=640
New Line.8687492 bus1=105766.1.2.3 bus2=103259.1.2.3 length=102.463305 units=m phases=3 phases=3 LineCode=UA1/0T_UG_PRIMARY_3_1Cond NormAmps=150
Edit Line.8687493 bus1=103259.1.2.3 bus2=101256.1.2.3 length=131.576873 units=m phases=3 phases=3 LineCode=UA1/0T_UG_PRIMARY_3_1Cond NormAmps=150
New Line.27810577 bus1=101256.1.2.3 bus2=101721.1.2.3 length=1.523988 units=m phases=3 phases=3 LineCode=UA1/0T_UG_PRIMARY_3_1Cond NormAmps=150
New Line.9960191 bus1=20201.1.2.3 bus2=104074.1.2.3 length=3.226606 units=m phases=3 phases=3 LineCode=UA4/0A_UG_SECONDARY_3_1Cond NormAmps=260
New Line.8683859 bus1=10258.1.2.3 bus2=107220.1.2.3 length=70.313945 units=m phases=3 phases=3 LineCode=UA750Z_UG_PRIMARY_3_1Cond NormAmps=485
New Line.8683954 bus1=107220.1.2.3 bus2=105148.1.2.3 length=276.971308 units=m phases=3 phases=3 LineCode=UA750Z_UG_PRIMARY_3_1Cond NormAmps=485
Edit Line.8683946 bus1=105148.2.0 bus2=104278.2.0 length=0.457326 units=m phases=1 phases=1 LineCode=UA750Z_UG_PRIMARY_1_1Cond NormAmps=485
New Line.5406112 bus1=104278.2.0 bus2=106695.2.0 length=0.456956 units=m phases=1 phases=1 LineCode=BUSWORK_1_1Cond NormAmps=640
Edit Line.5406111 bus1=106695.2.0 bus2=105875.2.0 length=0.456956 units=m phases=1 phases=1 LineCode=BUSWORK_1_1Cond NormAmps=640
New Line.8685464 bus1=105875.2.0 bus2=102480.2.0 length=0.434739 units=m phases=1 phases=1 LineCode=UA1/0T_UG_PRIMARY_1_1Cond NormAmps=150
New Line.5406107 bus1=106695.2.0 bus2=102753.2.0 length=0.914652 units=m phases=1 phases=1 LineCode=BUSWORK_1_1Cond NormAmps=640
Edit Line.5406117 bus1=102753.2.0 bus2=105374.2.0 length=0.457327 units=m phases=1 phases=1 LineCode=BUSWORK_1_1Cond NormAmps=640
New Line.16084022 bus1=105374.2.0 bus2=104040.2.0 length=180.482951 units=m phases=1 phases=1 LineCode=UA1/0T_UG_PRIMARY_1_1Cond NormAmps=150
Edit Line.8688672 bus1=104040.2.0 bus2=107294.2.0 length=109.114806 units=m phases=1 phases=1 LineCode=UA1/0T_UG_PRIMARY_1_1Cond NormAmps=150
New Line.27810481 bus1=107294.2.0 bus2=102762.2.0 length=1.523963 units=m phases=1 phases=1 LineCode=UA1/0T_UG_PRIMARY_1_1Cond NormAmps=150
Edit Line.27810485 bus1=102762.2.0 bus2=103337.2.0 length=1.524033 units=m phases=1 phases=1 LineCode=UA1/0T_UG_PRIMARY_1_1Cond NormAmps=150
Edit Line.8688626 bus1=103337.2.0 bus2=106535.2.0 length=135.460074 units=m phases=1 phases=1 LineCode=UA1/0T_UG_PRIMARY_1_1Cond NormAmps=150
New Line.27810417 bus1=106535.2.0 bus2=106206.2.0 length=1.52398 units=m phases=1 phases=1 LineCode=UA1/0T_UG_PRIMARY_1_1Cond NormAmps=150
Edit Line.27810413 bus1=106206.2.0 bus2=103094.2.0 length=1.524015 units=m phases=1 phases=1 LineCode=UA1/0T_UG_PRIMARY_1_1Cond NormAmps=150
Edit Line.8688747 bus1=103094.2.0 bus2=104973.2.0 length=110.441215 units=m phases=1 phases=1 LineCode=UA1/0T_UG_PRIMARY_1_1Cond NormAmps=150
New Line.27810585 bus1=104973.2.0 bus2=103272.2.0 length=1.524009 units=m phases=1 phases=1 LineCode=UA1/0T_UG_PRIMARY_1_1Cond NormAmps=150
Edit Line.27810581 bus1=103272.2.0 bus2=101529.2.0 length=1.523979 units=m phases=1 phases=1 LineCode=UA1/0T_UG_PRIMARY_1_1Cond NormAmps=150
Edit Line.8688802 bus1=101529.2.0 bus2=103590.2.0 length=51.049275 units=m phases=1 phases=1 LineCode=UA1/0T_UG_PRIMARY_1_1Cond NormAmps=150
New Line.27810593 bus1=103590.2.0 bus2=106707.2.0 length=1.523959 units=m phases=1 phases=1 LineCode=UA1/0T_UG_PRIMARY_1_1Cond NormAmps=150
Edit Line.27810589 bus1=106707.2.0 bus2=10117.2.0 length=1.524036 units=m phases=1 phases=1 LineCode=UA1/0T_UG_PRIMARY_1_1Cond NormAmps=150
Edit Line.8688793 bus1=10117.2.0 bus2=103068.2.0 length=50.637589 units=m phases=1 phases=1 LineCode=UA1/0T_UG_PRIMARY_1_1Cond NormAmps=150
New Line.27810601 bus1=103068.2.0 bus2=102227.2.0 length=1.52403 units=m phases=1 phases=1 LineCode=UA1/0T_UG_PRIMARY_1_1Cond NormAmps=150
Edit Line.27810597 bus1=102227.2.0 bus2=107031.2.0 length=1.523973 units=m phases=1 phases=1 LineCode=UA1/0T_UG_PRIMARY_1_1Cond NormAmps=150
Edit Line.8688792 bus1=107031.2.0 bus2=105482.2.0 length=72.216857 units=m phases=1 phases=1 LineCode=UA1/0T_UG_PRIMARY_1_1Cond NormAmps=150
New Line.27810629 bus1=105482.2.0 bus2=105145.2.0 length=1.523968 units=m phases=1 phases=1 LineCode=UA1/0T_UG_PRIMARY_1_1Cond NormAmps=150
Edit Line.27810633 bus1=105145.2.0 bus2=102014.2.0 length=1.523954 units=m phases=1 phases=1 LineCode=UA1/0T_UG_PRIMARY_1_1Cond NormAmps=150
Edit Line.8688791 bus1=102014.2.0 bus2=102547.2.0 length=102.09292 units=m phases=1 phases=1 LineCode=UA1/0T_UG_PRIMARY_1_1Cond NormAmps=150
New Line.27810609 bus1=102547.2.0 bus2=101693.2.0 length=1.524044 units=m phases=1 phases=1 LineCode=UA1/0T_UG_PRIMARY_1_1Cond NormAmps=150
New Line.9967673 bus1=2040.2.0 bus2=103383.2.0 length=9.296479 units=m phases=1 phases=1 LineCode=UA1/0A_UG_SECONDARY_1_1Cond NormAmps=150
New Line.9967674 bus1=103383.2.0 bus2=106814.2.0 length=0.914448 units=m phases=1 phases=1 LineCode=UA1/0A_UG_SECONDARY_1_1Cond NormAmps=150
New Line.9967667 bus1=2040.2.0 bus2=102513.2.0 length=23.610231 units=m phases=1 phases=1 LineCode=UA1/0A_UG_SECONDARY_1_1Cond NormAmps=150
New Line.9967670 bus1=2040.2.0 bus2=106997.2.0 length=47.000197 units=m phases=1 phases=1 LineCode=UA1/0A_UG_SECONDARY_1_1Cond NormAmps=150
New Line.9967666 bus1=2040.2.0 bus2=104160.2.0 length=23.072339 units=m phases=1 phases=1 LineCode=UA1/0A_UG_SECONDARY_1_1Cond NormAmps=150
New Line.9967669 bus1=2040.2.0 bus2=103028.2.0 length=63.188401 units=m phases=1 phases=1 LineCode=UA4/0B_UG_SECONDARY_1_1Cond NormAmps=260
New Line.9967665 bus1=2040.2.0 bus2=106482.2.0 length=41.913952 units=m phases=1 phases=1 LineCode=UA1/0A_UG_SECONDARY_1_1Cond NormAmps=150
New Line.9967664 bus1=2040.2.0 bus2=103569.2.0 length=35.051914 units=m phases=1 phases=1 LineCode=UA1/0A_UG_SECONDARY_1_1Cond NormAmps=150
New Line.9967668 bus1=103569.2.0 bus2=10371.2.0 length=0.914287 units=m phases=1 phases=1 LineCode=UA1/0A_UG_SECONDARY_1_1Cond NormAmps=150
New Line.9967460 bus1=2038.2.0 bus2=103535.2.0 length=36.805733 units=m phases=1 phases=1 LineCode=UA1/0A_UG_SECONDARY_1_1Cond NormAmps=150
New Line.9967461 bus1=103535.2.0 bus2=102714.2.0 length=0.914333 units=m phases=1 phases=1 LineCode=UA1/0A_UG_SECONDARY_1_1Cond NormAmps=150
New Line.9967458 bus1=2038.2.0 bus2=106981.2.0 length=57.365062 units=m phases=1 phases=1 LineCode=UA4/0B_UG_SECONDARY_1_1Cond NormAmps=260
New Line.9967539 bus1=2038.2.0 bus2=103541.2.0 length=7.528033 units=m phases=1 phases=1 LineCode=UA1/0A_UG_SECONDARY_1_1Cond NormAmps=150
New Line.9967459 bus1=2038.2.0 bus2=102201.2.0 length=40.459159 units=m phases=1 phases=1 LineCode=UA1/0A_UG_SECONDARY_1_1Cond NormAmps=150
Edit Line.29548497 bus1=102201.2.0 bus2=102197.2.0 length=3.048102 units=m phases=1 phases=1 LineCode=UA4/0B_UG_SECONDARY_1_1Cond NormAmps=260
Edit Line.29548499 bus1=102197.2.0 bus2=106684.2.0 length=1.524081 units=m phases=1 phases=1 LineCode=UA4/0B_UG_SECONDARY_1_1Cond NormAmps=260
New Line.29548493 bus1=106684.2.0 bus2=102393.2.0 length=3.047919 units=m phases=1 phases=1 LineCode=UA4/0B_UG_SECONDARY_1_1Cond NormAmps=260
New Line.29548495 bus1=102201.2.0 bus2=104063.2.0 length=3.047998 units=m phases=1 phases=1 LineCode=UA1/0A_UG_SECONDARY_1_1Cond NormAmps=150
New Line.9967462 bus1=2038.2.0 bus2=1081.2.0 length=22.524444 units=m phases=1 phases=1 LineCode=UA1/0A_UG_SECONDARY_1_1Cond NormAmps=150
New Line.9967537 bus1=2038.2.0 bus2=103563.2.0 length=22.822666 units=m phases=1 phases=1 LineCode=UA1/0A_UG_SECONDARY_1_1Cond NormAmps=150
New Line.9967538 bus1=2038.2.0 bus2=103790.2.0 length=7.908066 units=m phases=1 phases=1 LineCode=UA1/0A_UG_SECONDARY_1_1Cond NormAmps=150
Edit Line.29548087 bus1=103790.2.0 bus2=101119.2.0 length=3.048075 units=m phases=1 phases=1 LineCode=UA4/0B_UG_SECONDARY_1_1Cond NormAmps=260
Edit Line.29548089 bus1=101119.2.0 bus2=104588.2.0 length=1.524073 units=m phases=1 phases=1 LineCode=UA4/0B_UG_SECONDARY_1_1Cond NormAmps=260
New Line.29548083 bus1=104588.2.0 bus2=103459.2.0 length=3.047855 units=m phases=1 phases=1 LineCode=UA4/0B_UG_SECONDARY_1_1Cond NormAmps=260
New Line.29548085 bus1=103790.2.0 bus2=103286.2.0 length=3.047974 units=m phases=1 phases=1 LineCode=UA1/0A_UG_SECONDARY_1_1Cond NormAmps=150
New Line.9967541 bus1=2038.2.0 bus2=101289.2.0 length=41.740454 units=m phases=1 phases=1 LineCode=UA1/0A_UG_SECONDARY_1_1Cond NormAmps=150
New Line.9967540 bus1=101289.2.0 bus2=103668.2.0 length=0.914553 units=m phases=1 phases=1 LineCode=UA1/0A_UG_SECONDARY_1_1Cond NormAmps=150
New Line.9967542 bus1=101289.2.0 bus2=105044.2.0 length=47.833306 units=m phases=1 phases=1 LineCode=UA1/0A_UG_SECONDARY_1_1Cond NormAmps=150
New Line.9967480 bus1=105044.2.0 bus2=101053.2.0 length=0.914441 units=m phases=1 phases=1 LineCode=UA1/0A_UG_SECONDARY_1_1Cond NormAmps=150
New Line.9967453 bus1=2071.2.0 bus2=101707.2.0 length=21.927806 units=m phases=1 phases=1 LineCode=UA1/0A_UG_SECONDARY_1_1Cond NormAmps=150
New Line.9967451 bus1=2071.2.0 bus2=103992.2.0 length=31.101125 units=m phases=1 phases=1 LineCode=UA1/0A_UG_SECONDARY_1_1Cond NormAmps=150
New Line.9967452 bus1=103992.2.0 bus2=103747.2.0 length=0.914422 units=m phases=1 phases=1 LineCode=UA1/0A_UG_SECONDARY_1_1Cond NormAmps=150
New Line.9967454 bus1=2071.2.0 bus2=102739.2.0 length=6.705564 units=m phases=1 phases=1 LineCode=UA1/0A_UG_SECONDARY_1_1Cond NormAmps=150
Edit Line.29548418 bus1=102739.2.0 bus2=101671.2.0 length=3.047849 units=m phases=1 phases=1 LineCode=UA4/0B_UG_SECONDARY_1_1Cond NormAmps=260
Edit Line.29548420 bus1=101671.2.0 bus2=106176.2.0 length=1.524149 units=m phases=1 phases=1 LineCode=UA4/0B_UG_SECONDARY_1_1Cond NormAmps=260
New Line.29548414 bus1=106176.2.0 bus2=105840.2.0 length=3.047992 units=m phases=1 phases=1 LineCode=UA4/0B_UG_SECONDARY_1_1Cond NormAmps=260
New Line.29548416 bus1=102739.2.0 bus2=102242.2.0 length=3.048008 units=m phases=1 phases=1 LineCode=UA1/0A_UG_SECONDARY_1_1Cond NormAmps=150
New Line.9967455 bus1=2071.2.0 bus2=104328.2.0 length=6.724622 units=m phases=1 phases=1 LineCode=UA1/0A_UG_SECONDARY_1_1Cond NormAmps=150
Edit Line.29548011 bus1=104328.2.0 bus2=101654.2.0 length=3.048064 units=m phases=1 phases=1 LineCode=UA4/0B_UG_SECONDARY_1_1Cond NormAmps=260
Edit Line.29548013 bus1=101654.2.0 bus2=104572.2.0 length=1.523974 units=m phases=1 phases=1 LineCode=UA4/0B_UG_SECONDARY_1_1Cond NormAmps=260
New Line.29548007 bus1=104572.2.0 bus2=106881.2.0 length=3.047771 units=m phases=1 phases=1 LineCode=UA4/0B_UG_SECONDARY_1_1Cond NormAmps=260
New Line.29548009 bus1=104328.2.0 bus2=101510.2.0 length=3.047967 units=m phases=1 phases=1 LineCode=UA1/0A_UG_SECONDARY_1_1Cond NormAmps=150
New Line.9967456 bus1=2071.2.0 bus2=106717.2.0 length=26.099171 units=m phases=1 phases=1 LineCode=UA1/0A_UG_SECONDARY_1_1Cond NormAmps=150
New Line.9967457 bus1=2071.2.0 bus2=107239.2.0 length=24.96459 units=m phases=1 phases=1 LineCode=UA1/0A_UG_SECONDARY_1_1Cond NormAmps=150
New Line.9967448 bus1=20253.2.0 bus2=102799.2.0 length=5.646995 units=m phases=1 phases=1 LineCode=UA1/0A_UG_SECONDARY_1_1Cond NormAmps=150
New Line.9967449 bus1=20253.2.0 bus2=10962.2.0 length=6.302714 units=m phases=1 phases=1 LineCode=UA1/0A_UG_SECONDARY_1_1Cond NormAmps=150
New Line.9967398 bus1=20253.2.0 bus2=101183.2.0 length=25.764251 units=m phases=1 phases=1 LineCode=UA1/0A_UG_SECONDARY_1_1Cond NormAmps=150
Edit Line.29547651 bus1=101183.2.0 bus2=105349.2.0 length=3.047923 units=m phases=1 phases=1 LineCode=UA4/0B_UG_SECONDARY_1_1Cond NormAmps=260
Edit Line.29547653 bus1=105349.2.0 bus2=104242.2.0 length=1.523952 units=m phases=1 phases=1 LineCode=UA4/0B_UG_SECONDARY_1_1Cond NormAmps=260
New Line.29547647 bus1=104242.2.0 bus2=106372.2.0 length=3.048129 units=m phases=1 phases=1 LineCode=UA4/0B_UG_SECONDARY_1_1Cond NormAmps=260
New Line.29547649 bus1=101183.2.0 bus2=105731.2.0 length=3.048015 units=m phases=1 phases=1 LineCode=UA1/0A_UG_SECONDARY_1_1Cond NormAmps=150
New Line.9967450 bus1=20253.2.0 bus2=105702.2.0 length=24.235177 units=m phases=1 phases=1 LineCode=UA1/0A_UG_SECONDARY_1_1Cond NormAmps=150
New Line.9967396 bus1=20253.2.0 bus2=104550.2.0 length=44.473973 units=m phases=1 phases=1 LineCode=UA1/0A_UG_SECONDARY_1_1Cond NormAmps=150
New Line.9967397 bus1=104550.2.0 bus2=107410.2.0 length=0.914422 units=m phases=1 phases=1 LineCode=UA1/0A_UG_SECONDARY_1_1Cond NormAmps=150
New Line.9967399 bus1=20253.2.0 bus2=101743.2.0 length=35.579149 units=m phases=1 phases=1 LineCode=UA1/0A_UG_SECONDARY_1_1Cond NormAmps=150
New Line.9967447 bus1=20253.2.0 bus2=106743.2.0 length=41.87677 units=m phases=1 phases=1 LineCode=UA1/0A_UG_SECONDARY_1_1Cond NormAmps=150
New Line.9967389 bus1=20118.2.0 bus2=103505.2.0 length=37.394703 units=m phases=1 phases=1 LineCode=UA4/0B_UG_SECONDARY_1_1Cond NormAmps=260
New Line.9967395 bus1=20118.2.0 bus2=10322.2.0 length=5.778536 units=m phases=1 phases=1 LineCode=UA1/0A_UG_SECONDARY_1_1Cond NormAmps=150
New Line.9967394 bus1=20118.2.0 bus2=1027.2.0 length=24.582336 units=m phases=1 phases=1 LineCode=UA1/0A_UG_SECONDARY_1_1Cond NormAmps=150
New Line.9967387 bus1=20118.2.0 bus2=10927.2.0 length=52.440503 units=m phases=1 phases=1 LineCode=UA4/0B_UG_SECONDARY_1_1Cond NormAmps=260
New Line.9967393 bus1=20118.2.0 bus2=101723.2.0 length=20.992482 units=m phases=1 phases=1 LineCode=UA1/0A_UG_SECONDARY_1_1Cond NormAmps=150
Edit Line.29547858 bus1=101723.2.0 bus2=102189.2.0 length=3.047843 units=m phases=1 phases=1 LineCode=UA4/0B_UG_SECONDARY_1_1Cond NormAmps=260
Edit Line.29547860 bus1=102189.2.0 bus2=105102.2.0 length=1.524058 units=m phases=1 phases=1 LineCode=UA4/0B_UG_SECONDARY_1_1Cond NormAmps=260
New Line.29547854 bus1=105102.2.0 bus2=102924.2.0 length=3.047862 units=m phases=1 phases=1 LineCode=UA4/0B_UG_SECONDARY_1_1Cond NormAmps=260
New Line.29547856 bus1=101723.2.0 bus2=1043.2.0 length=3.048037 units=m phases=1 phases=1 LineCode=UA1/0A_UG_SECONDARY_1_1Cond NormAmps=150
New Line.10050654 bus1=20118.2.0 bus2=107276.2.0 length=20.805459 units=m phases=1 phases=1 LineCode=UA1/0A_UG_SECONDARY_1_1Cond NormAmps=150
New Line.9967391 bus1=20118.2.0 bus2=101715.2.0 length=31.554491 units=m phases=1 phases=1 LineCode=UA1/0A_UG_SECONDARY_1_1Cond NormAmps=150
New Line.9967390 bus1=101715.2.0 bus2=102244.2.0 length=0.91448 units=m phases=1 phases=1 LineCode=UA1/0A_UG_SECONDARY_1_1Cond NormAmps=150
New Line.9967392 bus1=101715.2.0 bus2=106702.2.0 length=39.143309 units=m phases=1 phases=1 LineCode=UA1/0A_UG_SECONDARY_1_1Cond NormAmps=150
New Line.9967388 bus1=106702.2.0 bus2=105954.2.0 length=0.914505 units=m phases=1 phases=1 LineCode=UA1/0A_UG_SECONDARY_1_1Cond NormAmps=150
New Line.9967182 bus1=20333.2.0 bus2=102683.2.0 length=25.768734 units=m phases=1 phases=1 LineCode=UA1/0A_UG_SECONDARY_1_1Cond NormAmps=150
New Line.9967181 bus1=20333.2.0 bus2=106644.2.0 length=24.75187 units=m phases=1 phases=1 LineCode=UA1/0A_UG_SECONDARY_1_1Cond NormAmps=150
New Line.9967322 bus1=20333.2.0 bus2=105093.2.0 length=65.881495 units=m phases=1 phases=1 LineCode=UA1/0A_UG_SECONDARY_1_1Cond NormAmps=150
New Line.9967386 bus1=105093.2.0 bus2=1024.2.0 length=0.914341 units=m phases=1 phases=1 LineCode=UA1/0A_UG_SECONDARY_1_1Cond NormAmps=150
New Line.9967145 bus1=20333.2.0 bus2=1079.2.0 length=10.769132 units=m phases=1 phases=1 LineCode=UA1/0A_UG_SECONDARY_1_1Cond NormAmps=150
Edit Line.29547501 bus1=1079.2.0 bus2=104256.2.0 length=3.048071 units=m phases=1 phases=1 LineCode=UA4/0B_UG_SECONDARY_1_1Cond NormAmps=260
Edit Line.29547503 bus1=104256.2.0 bus2=107155.2.0 length=1.524 units=m phases=1 phases=1 LineCode=UA4/0B_UG_SECONDARY_1_1Cond NormAmps=260
New Line.29547497 bus1=107155.2.0 bus2=102690.2.0 length=3.048 units=m phases=1 phases=1 LineCode=UA4/0B_UG_SECONDARY_1_1Cond NormAmps=260
New Line.29547499 bus1=1079.2.0 bus2=106625.2.0 length=3.047992 units=m phases=1 phases=1 LineCode=UA1/0A_UG_SECONDARY_1_1Cond NormAmps=150
New Line.9967144 bus1=20333.2.0 bus2=101873.2.0 length=38.894158 units=m phases=1 phases=1 LineCode=UA4/0B_UG_SECONDARY_1_1Cond NormAmps=260
New Line.9967183 bus1=20333.2.0 bus2=106880.2.0 length=2.085946 units=m phases=1 phases=1 LineCode=UA1/0A_UG_SECONDARY_1_1Cond NormAmps=150
New Line.9967184 bus1=106880.2.0 bus2=106369.2.0 length=0.914448 units=m phases=1 phases=1 LineCode=UA1/0A_UG_SECONDARY_1_1Cond NormAmps=150
New Line.9967320 bus1=20333.2.0 bus2=102458.2.0 length=49.188489 units=m phases=1 phases=1 LineCode=UA4/0B_UG_SECONDARY_1_1Cond NormAmps=260
New Line.9967321 bus1=20333.2.0 bus2=104323.2.0 length=52.951235 units=m phases=1 phases=1 LineCode=UA4/0B_UG_SECONDARY_1_1Cond NormAmps=260
New Line.9967139 bus1=20126.2.0 bus2=10925.2.0 length=2.247153 units=m phases=1 phases=1 LineCode=UA1/0A_UG_SECONDARY_1_1Cond NormAmps=150
New Line.9967140 bus1=10925.2.0 bus2=106736.2.0 length=0.914559 units=m phases=1 phases=1 LineCode=UA1/0A_UG_SECONDARY_1_1Cond NormAmps=150
New Line.9967141 bus1=20126.2.0 bus2=106749.2.0 length=62.517801 units=m phases=1 phases=1 LineCode=UA1/0A_UG_SECONDARY_1_1Cond NormAmps=150
New Line.9967142 bus1=106749.2.0 bus2=101665.2.0 length=0.914411 units=m phases=1 phases=1 LineCode=UA1/0A_UG_SECONDARY_1_1Cond NormAmps=150
New Line.9967138 bus1=20126.2.0 bus2=104978.2.0 length=26.940423 units=m phases=1 phases=1 LineCode=UA1/0A_UG_SECONDARY_1_1Cond NormAmps=150
New Line.9967143 bus1=20126.2.0 bus2=104472.2.0 length=46.722729 units=m phases=1 phases=1 LineCode=UA4/0B_UG_SECONDARY_1_1Cond NormAmps=260
New Line.9967135 bus1=20126.2.0 bus2=105789.2.0 length=26.881637 units=m phases=1 phases=1 LineCode=UA1/0A_UG_SECONDARY_1_1Cond NormAmps=150
New Line.9967136 bus1=20126.2.0 bus2=105038.2.0 length=8.955289 units=m phases=1 phases=1 LineCode=UA1/0A_UG_SECONDARY_1_1Cond NormAmps=150
New Line.9967130 bus1=20126.2.0 bus2=103853.2.0 length=68.279911 units=m phases=1 phases=1 LineCode=UA1/0A_UG_SECONDARY_1_1Cond NormAmps=150
New Line.9967131 bus1=103853.2.0 bus2=102791.2.0 length=0.914709 units=m phases=1 phases=1 LineCode=UA1/0A_UG_SECONDARY_1_1Cond NormAmps=150
New Line.9967134 bus1=20126.2.0 bus2=106994.2.0 length=43.569038 units=m phases=1 phases=1 LineCode=UA4/0B_UG_SECONDARY_1_1Cond NormAmps=260
Edit Line.29547355 bus1=106994.2.0 bus2=102687.2.0 length=3.047881 units=m phases=1 phases=1 LineCode=UA4/0B_UG_SECONDARY_1_1Cond NormAmps=260
Edit Line.29547359 bus1=102687.2.0 bus2=10254.2.0 length=1.523965 units=m phases=1 phases=1 LineCode=UA4/0B_UG_SECONDARY_1_1Cond NormAmps=260
New Line.29547349 bus1=10254.2.0 bus2=105617.2.0 length=3.047927 units=m phases=1 phases=1 LineCode=UA4/0B_UG_SECONDARY_1_1Cond NormAmps=260
New Line.29547351 bus1=106994.2.0 bus2=104471.2.0 length=3.047987 units=m phases=1 phases=1 LineCode=UA4/0B_UG_SECONDARY_1_1Cond NormAmps=260
New Line.9967137 bus1=20126.2.0 bus2=101802.2.0 length=8.59132 units=m phases=1 phases=1 LineCode=UA1/0A_UG_SECONDARY_1_1Cond NormAmps=150
Edit Line.5406118 bus1=102753.2.0 bus2=101887.2.0 length=0.456956 units=m phases=1 phases=1 LineCode=BUSWORK_1_1Cond NormAmps=640
New Line.19686349 bus1=101887.2.0 bus2=10933.2.0 length=0.208482 units=m phases=1 phases=1 LineCode=UA750Z_UG_PRIMARY_1_1Cond NormAmps=485
New Line.8683945 bus1=10933.2.0 bus2=103275.2.0 length=0.244031 units=m phases=1 phases=1 LineCode=UA750Z_UG_PRIMARY_1_1Cond NormAmps=485
Edit Line.8683948 bus1=105148.1.0 bus2=101639.1.0 length=0.549877 units=m phases=1 phases=1 LineCode=UA750Z_UG_PRIMARY_1_1Cond NormAmps=485
New Line.5406110 bus1=101639.1.0 bus2=105940.1.0 length=0.609151 units=m phases=1 phases=1 LineCode=BUSWORK_1_1Cond NormAmps=640
Edit Line.5406109 bus1=105940.1.0 bus2=101896.1.0 length=0.304761 units=m phases=1 phases=1 LineCode=BUSWORK_1_1Cond NormAmps=640
New Line.8685466 bus1=101896.1.0 bus2=102480.1.0 length=0.531256 units=m phases=1 phases=1 LineCode=UA1/0T_UG_PRIMARY_1_1Cond NormAmps=150
New Line.5406106 bus1=105940.1.0 bus2=102498.1.0 length=1.524174 units=m phases=1 phases=1 LineCode=BUSWORK_1_1Cond NormAmps=640
Edit Line.5406119 bus1=102498.1.0 bus2=105106.1.0 length=0.304391 units=m phases=1 phases=1 LineCode=BUSWORK_1_1Cond NormAmps=640
Edit Line.8683955 bus1=105106.1.0 bus2=103633.1.0 length=16.563703 units=m phases=1 phases=1 LineCode=UA1/0T_UG_PRIMARY_1_1Cond NormAmps=150
New Line.27810547 bus1=103633.1.0 bus2=104095.1.0 length=1.524021 units=m phases=1 phases=1 LineCode=UA1/0T_UG_PRIMARY_1_1Cond NormAmps=150
Edit Line.27810543 bus1=104095.1.0 bus2=10182.1.0 length=1.524024 units=m phases=1 phases=1 LineCode=UA1/0T_UG_PRIMARY_1_1Cond NormAmps=150
New Line.8688419 bus1=10182.1.0 bus2=105657.1.0 length=178.11878 units=m phases=1 phases=1 LineCode=UA1/0T_UG_PRIMARY_1_1Cond NormAmps=150
Edit Line.8688521 bus1=105657.1.0 bus2=107048.1.0 length=82.022495 units=m phases=1 phases=1 LineCode=UA1/0T_UG_PRIMARY_1_1Cond NormAmps=150
New Line.27810495 bus1=107048.1.0 bus2=104632.1.0 length=1.524017 units=m phases=1 phases=1 LineCode=UA1/0T_UG_PRIMARY_1_1Cond NormAmps=150
Edit Line.27810499 bus1=104632.1.0 bus2=103080.1.0 length=1.524032 units=m phases=1 phases=1 LineCode=UA1/0T_UG_PRIMARY_1_1Cond NormAmps=150
Edit Line.8688522 bus1=103080.1.0 bus2=105532.1.0 length=48.637171 units=m phases=1 phases=1 LineCode=UA1/0T_UG_PRIMARY_1_1Cond NormAmps=150
New Line.27810507 bus1=105532.1.0 bus2=101180.1.0 length=1.523993 units=m phases=1 phases=1 LineCode=UA1/0T_UG_PRIMARY_1_1Cond NormAmps=150
Edit Line.27810503 bus1=101180.1.0 bus2=101551.1.0 length=1.524013 units=m phases=1 phases=1 LineCode=UA1/0T_UG_PRIMARY_1_1Cond NormAmps=150
Edit Line.8688520 bus1=101551.1.0 bus2=104172.1.0 length=35.215691 units=m phases=1 phases=1 LineCode=UA1/0T_UG_PRIMARY_1_1Cond NormAmps=150
New Line.27810557 bus1=104172.1.0 bus2=105175.1.0 length=1.524018 units=m phases=1 phases=1 LineCode=UA1/0T_UG_PRIMARY_1_1Cond NormAmps=150
Edit Line.27810553 bus1=105175.1.0 bus2=107069.1.0 length=1.523969 units=m phases=1 phases=1 LineCode=UA1/0T_UG_PRIMARY_1_1Cond NormAmps=150
Edit Line.8688519 bus1=107069.1.0 bus2=104709.1.0 length=49.482949 units=m phases=1 phases=1 LineCode=UA1/0T_UG_PRIMARY_1_1Cond NormAmps=150
New Line.27810565 bus1=104709.1.0 bus2=104334.1.0 length=1.524 units=m phases=1 phases=1 LineCode=UA1/0T_UG_PRIMARY_1_1Cond NormAmps=150
Edit Line.27810561 bus1=104334.1.0 bus2=10164.1.0 length=1.523994 units=m phases=1 phases=1 LineCode=UA1/0T_UG_PRIMARY_1_1Cond NormAmps=150
Edit Line.8688518 bus1=10164.1.0 bus2=106000.1.0 length=53.996569 units=m phases=1 phases=1 LineCode=UA1/0T_UG_PRIMARY_1_1Cond NormAmps=150
New Line.27810637 bus1=106000.1.0 bus2=103797.1.0 length=1.52397 units=m phases=1 phases=1 LineCode=UA1/0T_UG_PRIMARY_1_1Cond NormAmps=150
Edit Line.27810641 bus1=103797.1.0 bus2=102558.1.0 length=1.523998 units=m phases=1 phases=1 LineCode=UA1/0T_UG_PRIMARY_1_1Cond NormAmps=150
Edit Line.8688517 bus1=102558.1.0 bus2=102277.1.0 length=125.32248 units=m phases=1 phases=1 LineCode=UA1/0T_UG_PRIMARY_1_1Cond NormAmps=150
New Line.27810621 bus1=102277.1.0 bus2=10335.1.0 length=1.523998 units=m phases=1 phases=1 LineCode=UA1/0T_UG_PRIMARY_1_1Cond NormAmps=150
Edit Line.27810625 bus1=10335.1.0 bus2=105744.1.0 length=1.524022 units=m phases=1 phases=1 LineCode=UA1/0T_UG_PRIMARY_1_1Cond NormAmps=150
Edit Line.8688469 bus1=105744.1.0 bus2=105984.1.0 length=50.350478 units=m phases=1 phases=1 LineCode=UA1/0T_UG_PRIMARY_1_1Cond NormAmps=150
New Line.27810613 bus1=105984.1.0 bus2=104350.1.0 length=1.52399 units=m phases=1 phases=1 LineCode=UA1/0T_UG_PRIMARY_1_1Cond NormAmps=150
Edit Line.27810617 bus1=104350.1.0 bus2=102002.1.0 length=1.523996 units=m phases=1 phases=1 LineCode=UA1/0T_UG_PRIMARY_1_1Cond NormAmps=150
Edit Line.8688468 bus1=102002.1.0 bus2=106774.1.0 length=46.584763 units=m phases=1 phases=1 LineCode=UA1/0T_UG_PRIMARY_1_1Cond NormAmps=150
New Line.27810491 bus1=106774.1.0 bus2=10359.1.0 length=1.524041 units=m phases=1 phases=1 LineCode=UA1/0T_UG_PRIMARY_1_1Cond NormAmps=150
New Line.9967128 bus1=20137.1.0 bus2=10642.1.0 length=6.516186 units=m phases=1 phases=1 LineCode=UA1/0A_UG_SECONDARY_1_1Cond NormAmps=150
Edit Line.29547605 bus1=10642.1.0 bus2=103729.1.0 length=3.048015 units=m phases=1 phases=1 LineCode=UA4/0B_UG_SECONDARY_1_1Cond NormAmps=260
Edit Line.29547607 bus1=103729.1.0 bus2=101344.1.0 length=1.524109 units=m phases=1 phases=1 LineCode=UA4/0B_UG_SECONDARY_1_1Cond NormAmps=260
New Line.29547601 bus1=101344.1.0 bus2=106135.1.0 length=3.04787 units=m phases=1 phases=1 LineCode=UA4/0B_UG_SECONDARY_1_1Cond NormAmps=260
New Line.29547603 bus1=10642.1.0 bus2=104055.1.0 length=3.048014 units=m phases=1 phases=1 LineCode=UA1/0A_UG_SECONDARY_1_1Cond NormAmps=150
New Line.9967129 bus1=20137.1.0 bus2=102985.1.0 length=6.343828 units=m phases=1 phases=1 LineCode=UA1/0A_UG_SECONDARY_1_1Cond NormAmps=150
New Line.9967126 bus1=20137.1.0 bus2=103783.1.0 length=24.09 units=m phases=1 phases=1 LineCode=UA1/0A_UG_SECONDARY_1_1Cond NormAmps=150
New Line.9967127 bus1=20137.1.0 bus2=101444.1.0 length=21.761366 units=m phases=1 phases=1 LineCode=UA1/0A_UG_SECONDARY_1_1Cond NormAmps=150
New Line.9967125 bus1=20137.1.0 bus2=105907.1.0 length=26.291191 units=m phases=1 phases=1 LineCode=UA1/0A_UG_SECONDARY_1_1Cond NormAmps=150
New Line.9967123 bus1=20137.1.0 bus2=101602.1.0 length=16.7127 units=m phases=1 phases=1 LineCode=UA1/0A_UG_SECONDARY_1_1Cond NormAmps=150
New Line.9967124 bus1=101602.1.0 bus2=107130.1.0 length=0.914501 units=m phases=1 phases=1 LineCode=UA1/0A_UG_SECONDARY_1_1Cond NormAmps=150
New Line.9967119 bus1=20355.1.0 bus2=103789.1.0 length=6.383394 units=m phases=1 phases=1 LineCode=UA1/0A_UG_SECONDARY_1_1Cond NormAmps=150
New Line.29547164 bus1=103789.1.0 bus2=104639.1.0 length=3.047902 units=m phases=1 phases=1 LineCode=UA1/0A_UG_SECONDARY_1_1Cond NormAmps=150
Edit Line.29547174 bus1=103789.1.0 bus2=103196.1.0 length=3.04795 units=m phases=1 phases=1 LineCode=UA4/0B_UG_SECONDARY_1_1Cond NormAmps=260
Edit Line.29547176 bus1=103196.1.0 bus2=106128.1.0 length=1.52415 units=m phases=1 phases=1 LineCode=UA4/0B_UG_SECONDARY_1_1Cond NormAmps=260
New Line.29547172 bus1=106128.1.0 bus2=102158.1.0 length=3.047727 units=m phases=1 phases=1 LineCode=UA4/0B_UG_SECONDARY_1_1Cond NormAmps=260
New Line.9967122 bus1=20355.1.0 bus2=103242.1.0 length=42.297597 units=m phases=1 phases=1 LineCode=UA1/0A_UG_SECONDARY_1_1Cond NormAmps=150
New Line.9967117 bus1=20355.1.0 bus2=103777.1.0 length=21.891748 units=m phases=1 phases=1 LineCode=UA1/0A_UG_SECONDARY_1_1Cond NormAmps=150
New Line.9967120 bus1=20355.1.0 bus2=106998.1.0 length=6.021707 units=m phases=1 phases=1 LineCode=UA1/0A_UG_SECONDARY_1_1Cond NormAmps=150
New Line.9967118 bus1=20355.1.0 bus2=105898.1.0 length=23.717619 units=m phases=1 phases=1 LineCode=UA1/0A_UG_SECONDARY_1_1Cond NormAmps=150
New Line.9967121 bus1=20355.1.0 bus2=101443.1.0 length=24.883497 units=m phases=1 phases=1 LineCode=UA1/0A_UG_SECONDARY_1_1Cond NormAmps=150
New Line.9967115 bus1=20355.1.0 bus2=102774.1.0 length=18.614988 units=m phases=1 phases=1 LineCode=UA1/0A_UG_SECONDARY_1_1Cond NormAmps=150
New Line.9967116 bus1=102774.1.0 bus2=102773.1.0 length=0.914497 units=m phases=1 phases=1 LineCode=UA1/0A_UG_SECONDARY_1_1Cond NormAmps=150
New Line.9967096 bus1=20155.1.0 bus2=106958.1.0 length=42.672281 units=m phases=1 phases=1 LineCode=UA1/0A_UG_SECONDARY_1_1Cond NormAmps=150
Edit Line.29546274 bus1=106958.1.0 bus2=103713.1.0 length=3.04802 units=m phases=1 phases=1 LineCode=UA4/0B_UG_SECONDARY_1_1Cond NormAmps=260
Edit Line.29546276 bus1=103713.1.0 bus2=10780.1.0 length=1.524001 units=m phases=1 phases=1 LineCode=UA4/0B_UG_SECONDARY_1_1Cond NormAmps=260
New Line.29546270 bus1=10780.1.0 bus2=104541.1.0 length=3.048132 units=m phases=1 phases=1 LineCode=UA4/0B_UG_SECONDARY_1_1Cond NormAmps=260
New Line.29546272 bus1=106958.1.0 bus2=106424.1.0 length=3.048 units=m phases=1 phases=1 LineCode=UA1/0A_UG_SECONDARY_1_1Cond NormAmps=150
New Line.9967097 bus1=20155.1.0 bus2=104861.1.0 length=23.346693 units=m phases=1 phases=1 LineCode=UA1/0A_UG_SECONDARY_1_1Cond NormAmps=150
New Line.9967098 bus1=20155.1.0 bus2=104102.1.0 length=8.503027 units=m phases=1 phases=1 LineCode=UA1/0A_UG_SECONDARY_1_1Cond NormAmps=150
New Line.10051224 bus1=20155.1.0 bus2=104914.1.0 length=34.062729 units=m phases=1 phases=1 LineCode=UA1/0A_UG_SECONDARY_1_1Cond NormAmps=150
New Line.9967087 bus1=20155.1.0 bus2=103908.1.0 length=36.905836 units=m phases=1 phases=1 LineCode=UA1/0A_UG_SECONDARY_1_1Cond NormAmps=150
New Line.9967088 bus1=103908.1.0 bus2=102127.1.0 length=36.534286 units=m phases=1 phases=1 LineCode=UA1/0A_UG_SECONDARY_1_1Cond NormAmps=150
New Line.9967094 bus1=102127.1.0 bus2=104786.1.0 length=0.914365 units=m phases=1 phases=1 LineCode=UA1/0A_UG_SECONDARY_1_1Cond NormAmps=150
New Line.9967093 bus1=103908.1.0 bus2=106026.1.0 length=0.914584 units=m phases=1 phases=1 LineCode=UA1/0A_UG_SECONDARY_1_1Cond NormAmps=150
New Line.9967095 bus1=20155.1.0 bus2=102721.1.0 length=24.52776 units=m phases=1 phases=1 LineCode=UA1/0A_UG_SECONDARY_1_1Cond NormAmps=150
New Line.9967100 bus1=20155.1.0 bus2=101081.1.0 length=19.117759 units=m phases=1 phases=1 LineCode=UA1/0A_UG_SECONDARY_1_1Cond NormAmps=150
New Line.9967101 bus1=101081.1.0 bus2=106117.1.0 length=0.914422 units=m phases=1 phases=1 LineCode=UA1/0A_UG_SECONDARY_1_1Cond NormAmps=150
New Line.9967099 bus1=20155.1.0 bus2=105398.1.0 length=8.51386 units=m phases=1 phases=1 LineCode=UA1/0A_UG_SECONDARY_1_1Cond NormAmps=150
New Line.9967032 bus1=2068.1.0 bus2=107200.1.0 length=66.230165 units=m phases=1 phases=1 LineCode=UA4/0B_UG_SECONDARY_1_1Cond NormAmps=260
Edit Line.29528251 bus1=107200.1.0 bus2=107393.1.0 length=3.048082 units=m phases=1 phases=1 LineCode=UA4/0B_UG_SECONDARY_1_1Cond NormAmps=260
Edit Line.29528253 bus1=107393.1.0 bus2=103990.1.0 length=1.523996 units=m phases=1 phases=1 LineCode=UA4/0B_UG_SECONDARY_1_1Cond NormAmps=260
New Line.29528247 bus1=103990.1.0 bus2=105865.1.0 length=3.047878 units=m phases=1 phases=1 LineCode=UA4/0B_UG_SECONDARY_1_1Cond NormAmps=260
New Line.29528249 bus1=107200.1.0 bus2=105079.1.0 length=3.047998 units=m phases=1 phases=1 LineCode=UA4/0B_UG_SECONDARY_1_1Cond NormAmps=260
New Line.9967033 bus1=2068.1.0 bus2=105391.1.0 length=55.437761 units=m phases=1 phases=1 LineCode=UA4/0B_UG_SECONDARY_1_1Cond NormAmps=260
New Line.9967035 bus1=2068.1.0 bus2=103.1.0 length=33.771291 units=m phases=1 phases=1 LineCode=UA1/0A_UG_SECONDARY_1_1Cond NormAmps=150
New Line.9967036 bus1=103.1.0 bus2=103478.1.0 length=0.91448 units=m phases=1 phases=1 LineCode=UA1/0A_UG_SECONDARY_1_1Cond NormAmps=150
New Line.9967086 bus1=2068.1.0 bus2=106947.1.0 length=7.976783 units=m phases=1 phases=1 LineCode=UA1/0A_UG_SECONDARY_1_1Cond NormAmps=150
New Line.9967114 bus1=2068.1.0 bus2=10308.1.0 length=42.034894 units=m phases=1 phases=1 LineCode=UA1/0A_UG_SECONDARY_1_1Cond NormAmps=150
New Line.9967085 bus1=2068.1.0 bus2=103501.1.0 length=30.44407 units=m phases=1 phases=1 LineCode=UA1/0A_UG_SECONDARY_1_1Cond NormAmps=150
Edit Line.29528135 bus1=103501.1.0 bus2=106864.1.0 length=3.047843 units=m phases=1 phases=1 LineCode=UA4/0B_UG_SECONDARY_1_1Cond NormAmps=260
Edit Line.29528137 bus1=106864.1.0 bus2=103442.1.0 length=1.524059 units=m phases=1 phases=1 LineCode=UA4/0B_UG_SECONDARY_1_1Cond NormAmps=260
New Line.29528131 bus1=103442.1.0 bus2=101884.1.0 length=3.047744 units=m phases=1 phases=1 LineCode=UA4/0B_UG_SECONDARY_1_1Cond NormAmps=260
New Line.29528133 bus1=103501.1.0 bus2=101185.1.0 length=3.047989 units=m phases=1 phases=1 LineCode=UA1/0A_UG_SECONDARY_1_1Cond NormAmps=150
New Line.9967034 bus1=2068.1.0 bus2=103520.1.0 length=25.30544 units=m phases=1 phases=1 LineCode=UA1/0A_UG_SECONDARY_1_1Cond NormAmps=150
Edit Line.29546574 bus1=103520.1.0 bus2=106886.1.0 length=3.047852 units=m phases=1 phases=1 LineCode=UA4/0B_UG_SECONDARY_1_1Cond NormAmps=260
Edit Line.29546576 bus1=106886.1.0 bus2=106628.1.0 length=1.523991 units=m phases=1 phases=1 LineCode=UA4/0B_UG_SECONDARY_1_1Cond NormAmps=260
New Line.29546570 bus1=106628.1.0 bus2=105067.1.0 length=3.048112 units=m phases=1 phases=1 LineCode=UA4/0B_UG_SECONDARY_1_1Cond NormAmps=260
New Line.29546572 bus1=103520.1.0 bus2=10321.1.0 length=3.048029 units=m phases=1 phases=1 LineCode=UA1/0A_UG_SECONDARY_1_1Cond NormAmps=150
New Line.9967079 bus1=20305.1.0 bus2=102984.1.0 length=21.940257 units=m phases=1 phases=1 LineCode=UA1/0A_UG_SECONDARY_1_1Cond NormAmps=150
New Line.9967080 bus1=20305.1.0 bus2=1037.1.0 length=6.530971 units=m phases=1 phases=1 LineCode=UA1/0A_UG_SECONDARY_1_1Cond NormAmps=150
New Line.9967081 bus1=20305.1.0 bus2=106452.1.0 length=6.452754 units=m phases=1 phases=1 LineCode=UA1/0A_UG_SECONDARY_1_1Cond NormAmps=150
New Line.9967083 bus1=20305.1.0 bus2=103648.1.0 length=25.636531 units=m phases=1 phases=1 LineCode=UA1/0A_UG_SECONDARY_1_1Cond NormAmps=150
New Line.9967084 bus1=103648.1.0 bus2=10987.1.0 length=0.914413 units=m phases=1 phases=1 LineCode=UA1/0A_UG_SECONDARY_1_1Cond NormAmps=150
New Line.9967082 bus1=20305.1.0 bus2=105541.1.0 length=26.504725 units=m phases=1 phases=1 LineCode=UA1/0A_UG_SECONDARY_1_1Cond NormAmps=150
New Line.9966824 bus1=20305.1.0 bus2=10862.1.0 length=23.709344 units=m phases=1 phases=1 LineCode=UA1/0A_UG_SECONDARY_1_1Cond NormAmps=150
New Line.9967677 bus1=20305.1.0 bus2=102982.1.0 length=34.091803 units=m phases=1 phases=1 LineCode=UA1/0A_UG_SECONDARY_1_1Cond NormAmps=150
New Line.9967678 bus1=102982.1.0 bus2=102474.1.0 length=0.914623 units=m phases=1 phases=1 LineCode=UA1/0A_UG_SECONDARY_1_1Cond NormAmps=150
New Line.9966045 bus1=2058.1.0 bus2=104612.1.0 length=24.942971 units=m phases=1 phases=1 LineCode=UA1/0A_UG_SECONDARY_1_1Cond NormAmps=150
New Line.9966046 bus1=2058.1.0 bus2=1061.1.0 length=25.689449 units=m phases=1 phases=1 LineCode=UA1/0A_UG_SECONDARY_1_1Cond NormAmps=150
New Line.9966048 bus1=2058.1.0 bus2=105152.1.0 length=60.605095 units=m phases=1 phases=1 LineCode=UA4/0B_UG_SECONDARY_1_1Cond NormAmps=260
New Line.9966044 bus1=2058.1.0 bus2=103911.1.0 length=5.954661 units=m phases=1 phases=1 LineCode=UA1/0A_UG_SECONDARY_1_1Cond NormAmps=150
New Line.9966241 bus1=2058.1.0 bus2=106591.1.0 length=30.763859 units=m phases=1 phases=1 LineCode=UA1/0A_UG_SECONDARY_1_1Cond NormAmps=150
New Line.9967031 bus1=106591.1.0 bus2=107274.1.0 length=0.914549 units=m phases=1 phases=1 LineCode=UA1/0A_UG_SECONDARY_1_1Cond NormAmps=150
New Line.9966047 bus1=2058.1.0 bus2=104039.1.0 length=45.512753 units=m phases=1 phases=1 LineCode=UA4/0B_UG_SECONDARY_1_1Cond NormAmps=260
Edit Line.29528091 bus1=104039.1.0 bus2=106355.1.0 length=3.047976 units=m phases=1 phases=1 LineCode=UA4/0B_UG_SECONDARY_1_1Cond NormAmps=260
Edit Line.29528093 bus1=106355.1.0 bus2=102912.1.0 length=1.523924 units=m phases=1 phases=1 LineCode=UA4/0B_UG_SECONDARY_1_1Cond NormAmps=260
New Line.29528087 bus1=102912.1.0 bus2=105364.1.0 length=3.047901 units=m phases=1 phases=1 LineCode=UA4/0B_UG_SECONDARY_1_1Cond NormAmps=260
New Line.29528089 bus1=104039.1.0 bus2=10616.1.0 length=3.048043 units=m phases=1 phases=1 LineCode=UA4/0B_UG_SECONDARY_1_1Cond NormAmps=260
New Line.9965658 bus1=2032.1.0 bus2=105387.1.0 length=15.089948 units=m phases=1 phases=1 LineCode=UA1/0A_UG_SECONDARY_1_1Cond NormAmps=150
New Line.9965659 bus1=105387.1.0 bus2=106422.1.0 length=0.914445 units=m phases=1 phases=1 LineCode=UA1/0A_UG_SECONDARY_1_1Cond NormAmps=150
New Line.9966529 bus1=2032.1.0 bus2=105957.1.0 length=6.006835 units=m phases=1 phases=1 LineCode=UA1/0A_UG_SECONDARY_1_1Cond NormAmps=150
New Line.9966528 bus1=2032.1.0 bus2=101123.1.0 length=19.009374 units=m phases=1 phases=1 LineCode=UA1/0A_UG_SECONDARY_1_1Cond NormAmps=150
Edit Line.29523789 bus1=101123.1.0 bus2=106375.1.0 length=3.047985 units=m phases=1 phases=1 LineCode=UA4/0B_UG_SECONDARY_1_1Cond NormAmps=260
Edit Line.29523791 bus1=106375.1.0 bus2=102927.1.0 length=1.524049 units=m phases=1 phases=1 LineCode=UA4/0B_UG_SECONDARY_1_1Cond NormAmps=260
New Line.29523785 bus1=102927.1.0 bus2=105788.1.0 length=3.048032 units=m phases=1 phases=1 LineCode=UA4/0B_UG_SECONDARY_1_1Cond NormAmps=260
New Line.29523787 bus1=101123.1.0 bus2=101971.1.0 length=3.048005 units=m phases=1 phases=1 LineCode=UA1/0A_UG_SECONDARY_1_1Cond NormAmps=150
New Line.9966554 bus1=2032.1.0 bus2=101159.1.0 length=22.932133 units=m phases=1 phases=1 LineCode=UA1/0A_UG_SECONDARY_1_1Cond NormAmps=150
New Line.10051222 bus1=2032.1.0 bus2=104897.1.0 length=24.81687 units=m phases=1 phases=1 LineCode=UA1/0A_UG_SECONDARY_1_1Cond NormAmps=150
New Line.9965652 bus1=20339.1.0 bus2=101905.1.0 length=47.114278 units=m phases=1 phases=1 LineCode=UA1/0A_UG_SECONDARY_1_1Cond NormAmps=150
New Line.9965654 bus1=101905.1.0 bus2=104305.1.0 length=0.914585 units=m phases=1 phases=1 LineCode=UA1/0A_UG_SECONDARY_1_1Cond NormAmps=150
New Line.9965653 bus1=101905.1.0 bus2=1022.1.0 length=49.232931 units=m phases=1 phases=1 LineCode=UA1/0A_UG_SECONDARY_1_1Cond NormAmps=150
New Line.9965655 bus1=1022.1.0 bus2=101689.1.0 length=0.914517 units=m phases=1 phases=1 LineCode=UA1/0A_UG_SECONDARY_1_1Cond NormAmps=150
New Line.9966532 bus1=20339.1.0 bus2=10574.1.0 length=22.278853 units=m phases=1 phases=1 LineCode=UA1/0A_UG_SECONDARY_1_1Cond NormAmps=150
New Line.10051223 bus1=20339.1.0 bus2=10386.1.0 length=26.304972 units=m phases=1 phases=1 LineCode=UA1/0A_UG_SECONDARY_1_1Cond NormAmps=150
New Line.9966530 bus1=20339.1.0 bus2=101673.1.0 length=36.236048 units=m phases=1 phases=1 LineCode=UA1/0A_UG_SECONDARY_1_1Cond NormAmps=150
Edit Line.29523717 bus1=101673.1.0 bus2=105843.1.0 length=3.047996 units=m phases=1 phases=1 LineCode=UA4/0B_UG_SECONDARY_1_1Cond NormAmps=260
Edit Line.29523719 bus1=105843.1.0 bus2=102395.1.0 length=1.523952 units=m phases=1 phases=1 LineCode=UA4/0B_UG_SECONDARY_1_1Cond NormAmps=260
New Line.29523713 bus1=102395.1.0 bus2=102327.1.0 length=3.047982 units=m phases=1 phases=1 LineCode=UA4/0B_UG_SECONDARY_1_1Cond NormAmps=260
New Line.29523715 bus1=101673.1.0 bus2=101466.1.0 length=3.047999 units=m phases=1 phases=1 LineCode=UA1/0A_UG_SECONDARY_1_1Cond NormAmps=150
New Line.9965656 bus1=20339.1.0 bus2=105124.1.0 length=1.955007 units=m phases=1 phases=1 LineCode=UA1/0A_UG_SECONDARY_1_1Cond NormAmps=150
New Line.9965657 bus1=105124.1.0 bus2=101900.1.0 length=0.914258 units=m phases=1 phases=1 LineCode=UA1/0A_UG_SECONDARY_1_1Cond NormAmps=150
New Line.9966531 bus1=20339.1.0 bus2=104574.1.0 length=21.37976 units=m phases=1 phases=1 LineCode=UA1/0A_UG_SECONDARY_1_1Cond NormAmps=150
New Line.29523859 bus1=104574.1.0 bus2=104321.1.0 length=3.047945 units=m phases=1 phases=1 LineCode=UA1/0A_UG_SECONDARY_1_1Cond NormAmps=150
Edit Line.29523869 bus1=104574.1.0 bus2=106885.1.0 length=3.048073 units=m phases=1 phases=1 LineCode=UA4/0B_UG_SECONDARY_1_1Cond NormAmps=260
Edit Line.29523871 bus1=106885.1.0 bus2=103461.1.0 length=1.524157 units=m phases=1 phases=1 LineCode=UA4/0B_UG_SECONDARY_1_1Cond NormAmps=260
New Line.29523867 bus1=103461.1.0 bus2=102864.1.0 length=3.04788 units=m phases=1 phases=1 LineCode=UA4/0B_UG_SECONDARY_1_1Cond NormAmps=260
New Line.10050647 bus1=20339.1.0 bus2=10625.1.0 length=6.062189 units=m phases=1 phases=1 LineCode=UA1/0A_UG_SECONDARY_1_1Cond NormAmps=150
New Line.10049437 bus1=2022.1.0 bus2=10909.1.0 length=9.495578 units=m phases=1 phases=1 LineCode=UA1/0A_UG_SECONDARY_1_1Cond NormAmps=150
New Line.10049289 bus1=2022.1.0 bus2=105456.1.0 length=7.632354 units=m phases=1 phases=1 LineCode=UA1/0A_UG_SECONDARY_1_1Cond NormAmps=150
New Line.9948433 bus1=2022.1.0 bus2=101080.1.0 length=12.832198 units=m phases=1 phases=1 LineCode=UA1/0A_UG_SECONDARY_1_1Cond NormAmps=150
New Line.9948435 bus1=101080.1.0 bus2=107264.1.0 length=71.247755 units=m phases=1 phases=1 LineCode=UA1/0A_UG_SECONDARY_1_1Cond NormAmps=150
New Line.9948437 bus1=107264.1.0 bus2=105839.1.0 length=51.288456 units=m phases=1 phases=1 LineCode=UA1/0A_UG_SECONDARY_1_1Cond NormAmps=150
New Line.9948438 bus1=105839.1.0 bus2=102612.1.0 length=0.91461 units=m phases=1 phases=1 LineCode=UA1/0A_UG_SECONDARY_1_1Cond NormAmps=150
New Line.9948439 bus1=105839.1.0 bus2=102218.1.0 length=74.140097 units=m phases=1 phases=1 LineCode=UA1/0A_UG_SECONDARY_1_1Cond NormAmps=150
New Line.9948440 bus1=102218.1.0 bus2=102499.1.0 length=0.914444 units=m phases=1 phases=1 LineCode=UA1/0A_UG_SECONDARY_1_1Cond NormAmps=150
New Line.9948441 bus1=102218.1.0 bus2=10351.1.0 length=53.413546 units=m phases=1 phases=1 LineCode=UA1/0A_UG_SECONDARY_1_1Cond NormAmps=150
New Line.9948443 bus1=10351.1.0 bus2=104386.1.0 length=54.455695 units=m phases=1 phases=1 LineCode=UA1/0A_UG_SECONDARY_1_1Cond NormAmps=150
New Line.9948444 bus1=104386.1.0 bus2=103545.1.0 length=0.914471 units=m phases=1 phases=1 LineCode=UA1/0A_UG_SECONDARY_1_1Cond NormAmps=150
New Line.9948445 bus1=104386.1.0 bus2=10789.1.0 length=53.107902 units=m phases=1 phases=1 LineCode=UA1/0A_UG_SECONDARY_1_1Cond NormAmps=150
New Line.9948446 bus1=10789.1.0 bus2=102942.1.0 length=0.914583 units=m phases=1 phases=1 LineCode=UA1/0A_UG_SECONDARY_1_1Cond NormAmps=150
New Line.9948447 bus1=10789.1.0 bus2=10281.1.0 length=61.297549 units=m phases=1 phases=1 LineCode=UA1/0A_UG_SECONDARY_1_1Cond NormAmps=150
New Line.9948448 bus1=10281.1.0 bus2=104041.1.0 length=0.914322 units=m phases=1 phases=1 LineCode=UA1/0A_UG_SECONDARY_1_1Cond NormAmps=150
New Line.9948467 bus1=10281.1.0 bus2=106995.1.0 length=44.027967 units=m phases=1 phases=1 LineCode=UA1/0A_UG_SECONDARY_1_1Cond NormAmps=150
New Line.9948468 bus1=106995.1.0 bus2=103308.1.0 length=0.91451 units=m phases=1 phases=1 LineCode=UA1/0A_UG_SECONDARY_1_1Cond NormAmps=150
New Line.9948469 bus1=106995.1.0 bus2=106431.1.0 length=77.662379 units=m phases=1 phases=1 LineCode=UA1/0A_UG_SECONDARY_1_1Cond NormAmps=150
New Line.9948471 bus1=106431.1.0 bus2=104250.1.0 length=48.232381 units=m phases=1 phases=1 LineCode=UA1/0A_UG_SECONDARY_1_1Cond NormAmps=150
New Line.9948474 bus1=104250.1.0 bus2=10251.1.0 length=0.914579 units=m phases=1 phases=1 LineCode=UA1/0A_UG_SECONDARY_1_1Cond NormAmps=150
New Line.9948472 bus1=104250.1.0 bus2=106944.1.0 length=63.985175 units=m phases=1 phases=1 LineCode=UA1/0A_UG_SECONDARY_1_1Cond NormAmps=150
New Line.9948473 bus1=106944.1.0 bus2=101916.1.0 length=0.914401 units=m phases=1 phases=1 LineCode=UA1/0A_UG_SECONDARY_1_1Cond NormAmps=150
New Line.9948470 bus1=106431.1.0 bus2=103235.1.0 length=0.914394 units=m phases=1 phases=1 LineCode=UA1/0A_UG_SECONDARY_1_1Cond NormAmps=150
New Line.9948442 bus1=10351.1.0 bus2=103810.1.0 length=0.914252 units=m phases=1 phases=1 LineCode=UA1/0A_UG_SECONDARY_1_1Cond NormAmps=150
New Line.9948436 bus1=107264.1.0 bus2=104387.1.0 length=0.914287 units=m phases=1 phases=1 LineCode=UA1/0A_UG_SECONDARY_1_1Cond NormAmps=150
New Line.9948434 bus1=101080.1.0 bus2=106366.1.0 length=0.914282 units=m phases=1 phases=1 LineCode=UA1/0A_UG_SECONDARY_1_1Cond NormAmps=150
Edit Line.5406120 bus1=102498.1.0 bus2=105867.1.0 length=0.609521 units=m phases=1 phases=1 LineCode=BUSWORK_1_1Cond NormAmps=640
New Line.19687840 bus1=105867.1.0 bus2=102112.1.0 length=0.246313 units=m phases=1 phases=1 LineCode=UA750Z_UG_PRIMARY_1_1Cond NormAmps=485
New Line.8683947 bus1=102112.1.0 bus2=103275.1.0 length=0.299257 units=m phases=1 phases=1 LineCode=UA750Z_UG_PRIMARY_1_1Cond NormAmps=485
Edit Line.8683949 bus1=105148.3.0 bus2=104805.3.0 length=0.549261 units=m phases=1 phases=1 LineCode=UA750Z_UG_PRIMARY_1_1Cond NormAmps=485
New Line.5406114 bus1=104805.3.0 bus2=10341.3.0 length=0.304761 units=m phases=1 phases=1 LineCode=BUSWORK_1_1Cond NormAmps=640
Edit Line.5406113 bus1=10341.3.0 bus2=101380.3.0 length=0.609152 units=m phases=1 phases=1 LineCode=BUSWORK_1_1Cond NormAmps=640
New Line.8685465 bus1=101380.3.0 bus2=102480.3.0 length=0.530587 units=m phases=1 phases=1 LineCode=UA1/0T_UG_PRIMARY_1_1Cond NormAmps=150
New Line.5406108 bus1=10341.3.0 bus2=103258.3.0 length=0.304761 units=m phases=1 phases=1 LineCode=BUSWORK_1_1Cond NormAmps=640
Edit Line.5406115 bus1=103258.3.0 bus2=101658.3.0 length=0.609152 units=m phases=1 phases=1 LineCode=BUSWORK_1_1Cond NormAmps=640
Edit Line.16084036 bus1=101658.3.0 bus2=10714.3.0 length=150.04091 units=m phases=1 phases=1 LineCode=UA1/0T_UG_PRIMARY_1_1Cond NormAmps=150
New Line.27810569 bus1=10714.3.0 bus2=1077.3.0 length=1.523999 units=m phases=1 phases=1 LineCode=UA1/0T_UG_PRIMARY_1_1Cond NormAmps=150
New Line.9948399 bus1=2028.3.0 bus2=103046.3.0 length=59.395887 units=m phases=1 phases=1 LineCode=UA1/0A_UG_SECONDARY_1_1Cond NormAmps=150
New Line.9948400 bus1=103046.3.0 bus2=106133.3.0 length=59.959641 units=m phases=1 phases=1 LineCode=UA1/0A_UG_SECONDARY_1_1Cond NormAmps=150
New Line.10050650 bus1=106133.3.0 bus2=103321.3.0 length=9.293657 units=m phases=1 phases=1 LineCode=UA1/0A_UG_SECONDARY_1_1Cond NormAmps=150
New Line.9948403 bus1=106133.3.0 bus2=10560.3.0 length=0.914203 units=m phases=1 phases=1 LineCode=UA1/0A_UG_SECONDARY_1_1Cond NormAmps=150
New Line.9948402 bus1=106133.3.0 bus2=106492.3.0 length=48.495579 units=m phases=1 phases=1 LineCode=UA1/0A_UG_SECONDARY_1_1Cond NormAmps=150
New Line.9948404 bus1=106492.3.0 bus2=101583.3.0 length=45.609183 units=m phases=1 phases=1 LineCode=UA1/0A_UG_SECONDARY_1_1Cond NormAmps=150
New Line.9948405 bus1=101583.3.0 bus2=106175.3.0 length=0.914379 units=m phases=1 phases=1 LineCode=UA1/0A_UG_SECONDARY_1_1Cond NormAmps=150
New Line.10058936 bus1=106492.3.0 bus2=101983.3.0 length=0.9145 units=m phases=1 phases=1 LineCode=UA1/0A_UG_SECONDARY_1_1Cond NormAmps=150
New Line.9948401 bus1=103046.3.0 bus2=105453.3.0 length=0.914458 units=m phases=1 phases=1 LineCode=UA1/0A_UG_SECONDARY_1_1Cond NormAmps=150
New Line.9948475 bus1=2028.3.0 bus2=105142.3.0 length=61.529786 units=m phases=1 phases=1 LineCode=UA1/0A_UG_SECONDARY_1_1Cond NormAmps=150
New Line.9948476 bus1=105142.3.0 bus2=102457.3.0 length=0.914289 units=m phases=1 phases=1 LineCode=UA1/0A_UG_SECONDARY_1_1Cond NormAmps=150
New Line.9948477 bus1=105142.3.0 bus2=102981.3.0 length=43.618703 units=m phases=1 phases=1 LineCode=UA1/0A_UG_SECONDARY_1_1Cond NormAmps=150
New Line.9948478 bus1=102981.3.0 bus2=103519.3.0 length=0.914421 units=m phases=1 phases=1 LineCode=UA1/0A_UG_SECONDARY_1_1Cond NormAmps=150
New Line.9948479 bus1=102981.3.0 bus2=102752.3.0 length=86.090955 units=m phases=1 phases=1 LineCode=UA1/0A_UG_SECONDARY_1_1Cond NormAmps=150
New Line.9948480 bus1=102752.3.0 bus2=103223.3.0 length=63.965101 units=m phases=1 phases=1 LineCode=UA1/0A_UG_SECONDARY_1_1Cond NormAmps=150
New Line.9948482 bus1=103223.3.0 bus2=102712.3.0 length=0.914336 units=m phases=1 phases=1 LineCode=UA1/0A_UG_SECONDARY_1_1Cond NormAmps=150
New Line.9948483 bus1=103223.3.0 bus2=103779.3.0 length=71.912574 units=m phases=1 phases=1 LineCode=UA1/0A_UG_SECONDARY_1_1Cond NormAmps=150
New Line.9948484 bus1=103779.3.0 bus2=104842.3.0 length=0.914237 units=m phases=1 phases=1 LineCode=UA1/0A_UG_SECONDARY_1_1Cond NormAmps=150
...