March/transformers.dss
New Transformer.TX705505 XfmrCode=4221452 Wdg=1 Bus=106411.2.0 Tap=1.0 Conn=wye Wdg=2 Bus=2091.2.0 Tap=1.0 Conn=wye core=shell Basefreq=60
New Transformer.TX667713 XfmrCode=4221452 Wdg=1 Bus=10630.3.0 Tap=1.0 Conn=wye Wdg=2 Bus=20304.3.0 Tap=1.0 Conn=wye core=shell Basefreq=60
New Transformer.TX667173 XfmrCode=4221453 Wdg=1 Bus=104650.2.0 Tap=1.0 Conn=wye Wdg=2 Bus=20163.2.0 Tap=1.0 Conn=wye core=shell Basefreq=60
New Transformer.TX667708 XfmrCode=4221453 Wdg=1 Bus=104613.3.0 Tap=1.0 Conn=wye Wdg=2 Bus=20364.3.0 Tap=1.0 Conn=wye core=shell Basefreq=60
New Transformer.TX734203 XfmrCode=4221453 Wdg=1 Bus=102359.3.0 Tap=1.0 Conn=wye Wdg=2 Bus=20370.3.0 Tap=1.0 Conn=wye core=shell Basefreq=60
New Transformer.TX780853 XfmrCode=4221453 Wdg=1 Bus=102390.1.0 Tap=1.0 Conn=wye Wdg=2 Bus=2019.1.0 Tap=1.0 Conn=wye core=shell Basefreq=60
New Transformer.TX678411 XfmrCode=4221453 Wdg=1 Bus=102254.2.0 Tap=1.0 Conn=wye Wdg=2 Bus=20361.2.0 Tap=1.0 Conn=wye core=shell Basefreq=60
New Transformer.TX705503 XfmrCode=4221452 Wdg=1 Bus=106678.2.0 Tap=1.0 Conn=wye Wdg=2 Bus=20102.2.0 Tap=1.0 Conn=wye core=shell Basefreq=60
New Transformer.TX658097 XfmrCode=4221452 Wdg=1 Bus=101494.3.0 Tap=1.0 Conn=wye Wdg=2 Bus=20152.3.0 Tap=1.0 Conn=wye core=shell Basefreq=60
New Transformer.TX780858 XfmrCode=4221453 Wdg=1 Bus=10773.2.0 Tap=1.0 Conn=wye Wdg=2 Bus=208.2.0 Tap=1.0 Conn=wye core=shell Basefreq=60
New Transformer.TX793102 XfmrCode=4221453 Wdg=1 Bus=106037.1.0 Tap=1.0 Conn=wye Wdg=2 Bus=2070.1.0 Tap=1.0 Conn=wye core=shell Basefreq=60
New Transformer.TX608970 XfmrCode=4221452 Wdg=1 Bus=105799.3.0 Tap=1.0 Conn=wye Wdg=2 Bus=20311.3.0 Tap=1.0 Conn=wye core=shell Basefreq=60
New Transformer.TX666435 XfmrCode=4221453 Wdg=1 Bus=106735.2.0 Tap=1.0 Conn=wye Wdg=2 Bus=20222.2.0 Tap=1.0 Conn=wye core=shell Basefreq=60
New Transformer.TX734204 XfmrCode=4221452 Wdg=1 Bus=103953.3.0 Tap=1.0 Conn=wye Wdg=2 Bus=2066.3.0 Tap=1.0 Conn=wye core=shell Basefreq=60
New Transformer.TX666428 XfmrCode=4221452 Wdg=1 Bus=104106.1.0 Tap=1.0 Conn=wye Wdg=2 Bus=20232.1.0 Tap=1.0 Conn=wye core=shell Basefreq=60
New Transformer.TX608935 XfmrCode=4221452 Wdg=1 Bus=106772.1.0 Tap=1.0 Conn=wye Wdg=2 Bus=20247.1.0 Tap=1.0 Conn=wye core=shell Basefreq=60
New Transformer.TX608957 XfmrCode=4221452 Wdg=1 Bus=104001.2.0 Tap=1.0 Conn=wye Wdg=2 Bus=20173.2.0 Tap=1.0 Conn=wye core=shell Basefreq=60
New Transformer.TX509944 XfmrCode=4221453 Wdg=1 Bus=106056.3.0 Tap=1.0 Conn=wye Wdg=2 Bus=2050.3.0 Tap=1.0 Conn=wye core=shell Basefreq=60
New Transformer.TX780880 XfmrCode=4221453 Wdg=1 Bus=101360.3.0 Tap=1.0 Conn=wye Wdg=2 Bus=20326.3.0 Tap=1.0 Conn=wye core=shell Basefreq=60
New Transformer.TX705504 XfmrCode=4221453 Wdg=1 Bus=106930.2.0 Tap=1.0 Conn=wye Wdg=2 Bus=20298.2.0 Tap=1.0 Conn=wye core=shell Basefreq=60
New Transformer.TX667178 XfmrCode=4221453 Wdg=1 Bus=106763.3.0 Tap=1.0 Conn=wye Wdg=2 Bus=20351.3.0 Tap=1.0 Conn=wye core=shell Basefreq=60
New Transformer.TX658086 XfmrCode=4221453 Wdg=1 Bus=102040.1.0 Tap=1.0 Conn=wye Wdg=2 Bus=20145.1.0 Tap=1.0 Conn=wye core=shell Basefreq=60
New Transformer.TX667182 XfmrCode=4221453 Wdg=1 Bus=104293.3.0 Tap=1.0 Conn=wye Wdg=2 Bus=20110.3.0 Tap=1.0 Conn=wye core=shell Basefreq=60
New Transformer.TX608927 XfmrCode=4221453 Wdg=1 Bus=101488.2.0 Tap=1.0 Conn=wye Wdg=2 Bus=20127.2.0 Tap=1.0 Conn=wye core=shell Basefreq=60
New Transformer.TX608945 XfmrCode=4221452 Wdg=1 Bus=107406.1.0 Tap=1.0 Conn=wye Wdg=2 Bus=20286.1.0 Tap=1.0 Conn=wye core=shell Basefreq=60
New Transformer.TX666436 XfmrCode=4221453 Wdg=1 Bus=103306.2.0 Tap=1.0 Conn=wye Wdg=2 Bus=20206.2.0 Tap=1.0 Conn=wye core=shell Basefreq=60
New Transformer.TX667160 XfmrCode=4221452 Wdg=1 Bus=107184.1.0 Tap=1.0 Conn=wye Wdg=2 Bus=20318.1.0 Tap=1.0 Conn=wye core=shell Basefreq=60
New Transformer.TX667715 XfmrCode=4221452 Wdg=1 Bus=101703.3.0 Tap=1.0 Conn=wye Wdg=2 Bus=204.3.0 Tap=1.0 Conn=wye core=shell Basefreq=60
New Transformer.TX512370 XfmrCode=4221453 Wdg=1 Bus=106707.2.0 Tap=1.0 Conn=wye Wdg=2 Bus=20253.2.0 Tap=1.0 Conn=wye core=shell Basefreq=60
New Transformer.TX780861 XfmrCode=4221452 Wdg=1 Bus=104245.2.0 Tap=1.0 Conn=wye Wdg=2 Bus=20208.2.0 Tap=1.0 Conn=wye core=shell Basefreq=60
New Transformer.TX707284 XfmrCode=4221452 Wdg=1 Bus=104096.1.0 Tap=1.0 Conn=wye Wdg=2 Bus=2042.1.0 Tap=1.0 Conn=wye core=shell Basefreq=60
New Transformer.TX509800 XfmrCode=4222213 Wdg=1 Bus=101721.1.2.3 Tap=1.0 Conn=wye Wdg=2 Bus=20201.1.2.3 Tap=1.0 Conn=wye core=shell Basefreq=60
New Transformer.TX608951 XfmrCode=4221453 Wdg=1 Bus=104923.2.0 Tap=1.0 Conn=wye Wdg=2 Bus=20230.2.0 Tap=1.0 Conn=wye core=shell Basefreq=60
New Transformer.TX667164 XfmrCode=4221452 Wdg=1 Bus=10824.1.0 Tap=1.0 Conn=wye Wdg=2 Bus=20252.1.0 Tap=1.0 Conn=wye core=shell Basefreq=60
New Transformer.TX639587 XfmrCode=4221453 Wdg=1 Bus=103581.1.0 Tap=1.0 Conn=wye Wdg=2 Bus=20354.1.0 Tap=1.0 Conn=wye core=shell Basefreq=60
New Transformer.TX667698 XfmrCode=4221452 Wdg=1 Bus=1019.2.0 Tap=1.0 Conn=wye Wdg=2 Bus=20107.2.0 Tap=1.0 Conn=wye core=shell Basefreq=60
New Transformer.TX608942 XfmrCode=4221453 Wdg=1 Bus=101809.1.0 Tap=1.0 Conn=wye Wdg=2 Bus=2044.1.0 Tap=1.0 Conn=wye core=shell Basefreq=60
New Transformer.TX608936 XfmrCode=4221452 Wdg=1 Bus=102896.1.0 Tap=1.0 Conn=wye Wdg=2 Bus=20295.1.0 Tap=1.0 Conn=wye core=shell Basefreq=60
New Transformer.TX780854 XfmrCode=4221453 Wdg=1 Bus=105837.1.0 Tap=1.0 Conn=wye Wdg=2 Bus=2037.1.0 Tap=1.0 Conn=wye core=shell Basefreq=60
New Transformer.TX780857 XfmrCode=4221453 Wdg=1 Bus=104779.1.0 Tap=1.0 Conn=wye Wdg=2 Bus=2033.1.0 Tap=1.0 Conn=wye core=shell Basefreq=60
New Transformer.TX634184 XfmrCode=4221453 Wdg=1 Bus=101481.3.0 Tap=1.0 Conn=wye Wdg=2 Bus=2014.3.0 Tap=1.0 Conn=wye core=shell Basefreq=60
New Transformer.TX512373 XfmrCode=4221453 Wdg=1 Bus=101693.2.0 Tap=1.0 Conn=wye Wdg=2 Bus=2040.2.0 Tap=1.0 Conn=wye core=shell Basefreq=60
New Transformer.TX608956 XfmrCode=4221452 Wdg=1 Bus=10541.2.0 Tap=1.0 Conn=wye Wdg=2 Bus=2080.2.0 Tap=1.0 Conn=wye core=shell Basefreq=60
New Transformer.TX780852 XfmrCode=4221453 Wdg=1 Bus=106368.1.0 Tap=1.0 Conn=wye Wdg=2 Bus=20168.1.0 Tap=1.0 Conn=wye core=shell Basefreq=60
New Transformer.TX608922 XfmrCode=4221453 Wdg=1 Bus=10128.2.0 Tap=1.0 Conn=wye Wdg=2 Bus=20122.2.0 Tap=1.0 Conn=wye core=shell Basefreq=60
New Transformer.TX705502 XfmrCode=4221452 Wdg=1 Bus=103497.2.0 Tap=1.0 Conn=wye Wdg=2 Bus=2094.2.0 Tap=1.0 Conn=wye core=shell Basefreq=60
New Transformer.TX634170 XfmrCode=4221453 Wdg=1 Bus=1071.1.0 Tap=1.0 Conn=wye Wdg=2 Bus=20366.1.0 Tap=1.0 Conn=wye core=shell Basefreq=60
New Transformer.TX634180 XfmrCode=4221453 Wdg=1 Bus=103040.2.0 Tap=1.0 Conn=wye Wdg=2 Bus=20360.2.0 Tap=1.0 Conn=wye core=shell Basefreq=60
New Transformer.TX666434 XfmrCode=4221453 Wdg=1 Bus=107001.2.0 Tap=1.0 Conn=wye Wdg=2 Bus=20268.2.0 Tap=1.0 Conn=wye core=shell Basefreq=60
New Transformer.TX780879 XfmrCode=4221452 Wdg=1 Bus=107418.3.0 Tap=1.0 Conn=wye Wdg=2 Bus=20158.3.0 Tap=1.0 Conn=wye core=shell Basefreq=60
New Transformer.TX705513 XfmrCode=4221452 Wdg=1 Bus=103687.3.0 Tap=1.0 Conn=wye Wdg=2 Bus=20205.3.0 Tap=1.0 Conn=wye core=shell Basefreq=60
New Transformer.TX634168 XfmrCode=4221453 Wdg=1 Bus=102779.1.0 Tap=1.0 Conn=wye Wdg=2 Bus=2060.1.0 Tap=1.0 Conn=wye core=shell Basefreq=60
New Transformer.TX639585 XfmrCode=4221453 Wdg=1 Bus=101988.2.0 Tap=1.0 Conn=wye Wdg=2 Bus=2059.2.0 Tap=1.0 Conn=wye core=shell Basefreq=60
New Transformer.TX734201 XfmrCode=4221453 Wdg=1 Bus=102893.3.0 Tap=1.0 Conn=wye Wdg=2 Bus=2023.3.0 Tap=1.0 Conn=wye core=shell Basefreq=60
New Transformer.TX705487 XfmrCode=4221452 Wdg=1 Bus=103039.2.0 Tap=1.0 Conn=wye Wdg=2 Bus=2047.2.0 Tap=1.0 Conn=wye core=shell Basefreq=60
New Transformer.TX667701 XfmrCode=4221453 Wdg=1 Bus=104623.3.0 Tap=1.0 Conn=wye Wdg=2 Bus=20151.3.0 Tap=1.0 Conn=wye core=shell Basefreq=60
New Transformer.TX678415 XfmrCode=4221453 Wdg=1 Bus=106506.1.0 Tap=1.0 Conn=wye Wdg=2 Bus=2063.1.0 Tap=1.0 Conn=wye core=shell Basefreq=60
New Transformer.TX705506 XfmrCode=4221452 Wdg=1 Bus=105128.2.0 Tap=1.0 Conn=wye Wdg=2 Bus=20128.2.0 Tap=1.0 Conn=wye core=shell Basefreq=60
New Transformer.TX658087 XfmrCode=4221453 Wdg=1 Bus=106029.1.0 Tap=1.0 Conn=wye Wdg=2 Bus=20309.1.0 Tap=1.0 Conn=wye core=shell Basefreq=60
New Transformer.TX684295 XfmrCode=4221453 Wdg=1 Bus=104631.1.0 Tap=1.0 Conn=wye Wdg=2 Bus=20341.1.0 Tap=1.0 Conn=wye core=shell Basefreq=60
New Transformer.TX658094 XfmrCode=4221452 Wdg=1 Bus=107047.2.0 Tap=1.0 Conn=wye Wdg=2 Bus=20319.2.0 Tap=1.0 Conn=wye core=shell Basefreq=60
New Transformer.TX667720 XfmrCode=4221452 Wdg=1 Bus=103828.2.0 Tap=1.0 Conn=wye Wdg=2 Bus=20331.2.0 Tap=1.0 Conn=wye core=shell Basefreq=60
New Transformer.TX457046 XfmrCode=4221451 Wdg=1 Bus=104095.1.0 Tap=1.0 Conn=wye Wdg=2 Bus=2022.1.0 Tap=1.0 Conn=wye core=shell Basefreq=60
New Transformer.TX634174 XfmrCode=4221453 Wdg=1 Bus=101170.1.0 Tap=1.0 Conn=wye Wdg=2 Bus=20301.1.0 Tap=1.0 Conn=wye core=shell Basefreq=60
New Transformer.TX666437 XfmrCode=4221453 Wdg=1 Bus=106722.2.0 Tap=1.0 Conn=wye Wdg=2 Bus=20106.2.0 Tap=1.0 Conn=wye core=shell Basefreq=60
New Transformer.TX634164 XfmrCode=4221452 Wdg=1 Bus=105189.3.0 Tap=1.0 Conn=wye Wdg=2 Bus=2056.3.0 Tap=1.0 Conn=wye core=shell Basefreq=60
New Transformer.TX705508 XfmrCode=4221452 Wdg=1 Bus=10309.3.0 Tap=1.0 Conn=wye Wdg=2 Bus=20258.3.0 Tap=1.0 Conn=wye core=shell Basefreq=60
New Transformer.TX512367 XfmrCode=4221453 Wdg=1 Bus=102762.2.0 Tap=1.0 Conn=wye Wdg=2 Bus=20126.2.0 Tap=1.0 Conn=wye core=shell Basefreq=60
New Transformer.TX667705 XfmrCode=4221452 Wdg=1 Bus=10378.3.0 Tap=1.0 Conn=wye Wdg=2 Bus=20114.3.0 Tap=1.0 Conn=wye core=shell Basefreq=60
New Transformer.TX780859 XfmrCode=4221452 Wdg=1 Bus=10248.2.0 Tap=1.0 Conn=wye Wdg=2 Bus=20283.2.0 Tap=1.0 Conn=wye core=shell Basefreq=60
New Transformer.TX667719 XfmrCode=4221453 Wdg=1 Bus=107222.2.0 Tap=1.0 Conn=wye Wdg=2 Bus=20176.2.0 Tap=1.0 Conn=wye core=shell Basefreq=60
New Transformer.TX608932 XfmrCode=4221453 Wdg=1 Bus=106322.1.0 Tap=1.0 Conn=wye Wdg=2 Bus=20348.1.0 Tap=1.0 Conn=wye core=shell Basefreq=60
New Transformer.TX509798 XfmrCode=4221453 Wdg=1 Bus=102928.3.0 Tap=1.0 Conn=wye Wdg=2 Bus=20267.3.0 Tap=1.0 Conn=wye core=shell Basefreq=60
New Transformer.TX512361 XfmrCode=4221453 Wdg=1 Bus=105175.1.0 Tap=1.0 Conn=wye Wdg=2 Bus=2058.1.0 Tap=1.0 Conn=wye core=shell Basefreq=60
New Transformer.TX667699 XfmrCode=4221452 Wdg=1 Bus=102341.3.0 Tap=1.0 Conn=wye Wdg=2 Bus=20210.3.0 Tap=1.0 Conn=wye core=shell Basefreq=60
New Transformer.TX793112 XfmrCode=4221453 Wdg=1 Bus=104180.2.0 Tap=1.0 Conn=wye Wdg=2 Bus=2085.2.0 Tap=1.0 Conn=wye core=shell Basefreq=60
New Transformer.TX608943 XfmrCode=4221453 Wdg=1 Bus=106321.1.0 Tap=1.0 Conn=wye Wdg=2 Bus=20234.1.0 Tap=1.0 Conn=wye core=shell Basefreq=60
New Transformer.TX659774 XfmrCode=4221451 Wdg=1 Bus=103291.1.0 Tap=1.0 Conn=wye Wdg=2 Bus=20263.1.0 Tap=1.0 Conn=wye core=shell Basefreq=60
New Transformer.TX684207 XfmrCode=4221555 Wdg=1 Bus=102659.1.0 Tap=1.0 Conn=wye Wdg=2 Bus=20214.1.0 Tap=1.0 Conn=wye core=shell Basefreq=60
New Transformer.TX608968 XfmrCode=4221452 Wdg=1 Bus=105120.3.0 Tap=1.0 Conn=wye Wdg=2 Bus=20229.3.0 Tap=1.0 Conn=wye core=shell Basefreq=60
New Transformer.TX608964 XfmrCode=4221452 Wdg=1 Bus=104363.3.0 Tap=1.0 Conn=wye Wdg=2 Bus=20358.3.0 Tap=1.0 Conn=wye core=shell Basefreq=60
New Transformer.TX608937 XfmrCode=4221452 Wdg=1 Bus=106929.1.0 Tap=1.0 Conn=wye Wdg=2 Bus=2049.1.0 Tap=1.0 Conn=wye core=shell Basefreq=60
New Transformer.TX509946 XfmrCode=4221453 Wdg=1 Bus=101816.2.0 Tap=1.0 Conn=wye Wdg=2 Bus=20199.2.0 Tap=1.0 Conn=wye core=shell Basefreq=60
New Transformer.TX512363 XfmrCode=4221453 Wdg=1 Bus=103797.1.0 Tap=1.0 Conn=wye Wdg=2 Bus=2068.1.0 Tap=1.0 Conn=wye core=shell Basefreq=60
New Transformer.TX705484 XfmrCode=4221453 Wdg=1 Bus=106797.1.0 Tap=1.0 Conn=wye Wdg=2 Bus=20300.1.0 Tap=1.0 Conn=wye core=shell Basefreq=60
New Transformer.TX667183 XfmrCode=4221453 Wdg=1 Bus=101379.3.0 Tap=1.0 Conn=wye Wdg=2 Bus=20177.3.0 Tap=1.0 Conn=wye core=shell Basefreq=60
New Transformer.TX780869 XfmrCode=4221453 Wdg=1 Bus=101869.3.0 Tap=1.0 Conn=wye Wdg=2 Bus=20353.3.0 Tap=1.0 Conn=wye core=shell Basefreq=60
New Transformer.TX658096 XfmrCode=4221453 Wdg=1 Bus=105481.2.0 Tap=1.0 Conn=wye Wdg=2 Bus=203.2.0 Tap=1.0 Conn=wye core=shell Basefreq=60
New Transformer.TX780867 XfmrCode=4221453 Wdg=1 Bus=105338.3.0 Tap=1.0 Conn=wye Wdg=2 Bus=20223.3.0 Tap=1.0 Conn=wye core=shell Basefreq=60
New Transformer.TX639591 XfmrCode=4221452 Wdg=1 Bus=104657.1.0 Tap=1.0 Conn=wye Wdg=2 Bus=2093.1.0 Tap=1.0 Conn=wye core=shell Basefreq=60
New Transformer.TX684204 XfmrCode=4221453 Wdg=1 Bus=103023.1.0 Tap=1.0 Conn=wye Wdg=2 Bus=2018.1.0 Tap=1.0 Conn=wye core=shell Basefreq=60
New Transformer.TX608973 XfmrCode=4221452 Wdg=1 Bus=102747.3.0 Tap=1.0 Conn=wye Wdg=2 Bus=20277.3.0 Tap=1.0 Conn=wye core=shell Basefreq=60
New Transformer.TX780864 XfmrCode=4221452 Wdg=1 Bus=10787.2.0 Tap=1.0 Conn=wye Wdg=2 Bus=2076.2.0 Tap=1.0 Conn=wye core=shell Basefreq=60
New Transformer.TX511583 XfmrCode=4221453 Wdg=1 Bus=106733.1.0 Tap=1.0 Conn=wye Wdg=2 Bus=20166.1.0 Tap=1.0 Conn=wye core=shell Basefreq=60
New Transformer.TX511585 XfmrCode=4221453 Wdg=1 Bus=105458.1.0 Tap=1.0 Conn=wye Wdg=2 Bus=20294.1.0 Tap=1.0 Conn=wye core=shell Basefreq=60
New Transformer.TX526578 XfmrCode=4221452 Wdg=1 Bus=101333.1.0 Tap=1.0 Conn=wye Wdg=2 Bus=2075.1.0 Tap=1.0 Conn=wye core=shell Basefreq=60
New Transformer.TX608962 XfmrCode=4221452 Wdg=1 Bus=104384.3.0 Tap=1.0 Conn=wye Wdg=2 Bus=2043.3.0 Tap=1.0 Conn=wye core=shell Basefreq=60
New Transformer.TX780877 XfmrCode=4221452 Wdg=1 Bus=106895.3.0 Tap=1.0 Conn=wye Wdg=2 Bus=20190.3.0 Tap=1.0 Conn=wye core=shell Basefreq=60
New Transformer.TX608963 XfmrCode=4221452 Wdg=1 Bus=10397.3.0 Tap=1.0 Conn=wye Wdg=2 Bus=20312.3.0 Tap=1.0 Conn=wye core=shell Basefreq=60
New Transformer.TX639582 XfmrCode=4221452 Wdg=1 Bus=106511.2.0 Tap=1.0 Conn=wye Wdg=2 Bus=20288.2.0 Tap=1.0 Conn=wye core=shell Basefreq=60
New Transformer.TX705512 XfmrCode=4221452 Wdg=1 Bus=105883.3.0 Tap=1.0 Conn=wye Wdg=2 Bus=2027.3.0 Tap=1.0 Conn=wye core=shell Basefreq=60
New Transformer.TX509948 XfmrCode=4221453 Wdg=1 Bus=101279.2.0 Tap=1.0 Conn=wye Wdg=2 Bus=20255.2.0 Tap=1.0 Conn=wye core=shell Basefreq=60
New Transformer.TX705481 XfmrCode=4221453 Wdg=1 Bus=101820.1.0 Tap=1.0 Conn=wye Wdg=2 Bus=20119.1.0 Tap=1.0 Conn=wye core=shell Basefreq=60
New Transformer.TX634173 XfmrCode=4221453 Wdg=1 Bus=105704.1.0 Tap=1.0 Conn=wye Wdg=2 Bus=20169.1.0 Tap=1.0 Conn=wye core=shell Basefreq=60
New Transformer.TX709957 XfmrCode=4221452 Wdg=1 Bus=104668.2.0 Tap=1.0 Conn=wye Wdg=2 Bus=20149.2.0 Tap=1.0 Conn=wye core=shell Basefreq=60
New Transformer.TX667694 XfmrCode=4221453 Wdg=1 Bus=101120.2.0 Tap=1.0 Conn=wye Wdg=2 Bus=20226.2.0 Tap=1.0 Conn=wye core=shell Basefreq=60
New Transformer.TX667704 XfmrCode=4221452 Wdg=1 Bus=103838.3.0 Tap=1.0 Conn=wye Wdg=2 Bus=2065.3.0 Tap=1.0 Conn=wye core=shell Basefreq=60
New Transformer.TX608971 XfmrCode=4221452 Wdg=1 Bus=106692.3.0 Tap=1.0 Conn=wye Wdg=2 Bus=20117.3.0 Tap=1.0 Conn=wye core=shell Basefreq=60
New Transformer.TX667177 XfmrCode=4221452 Wdg=1 Bus=102274.3.0 Tap=1.0 Conn=wye Wdg=2 Bus=20257.3.0 Tap=1.0 Conn=wye core=shell Basefreq=60
New Transformer.TX667184 XfmrCode=4221453 Wdg=1 Bus=104818.3.0 Tap=1.0 Conn=wye Wdg=2 Bus=20242.3.0 Tap=1.0 Conn=wye core=shell Basefreq=60
...